Circuit: * E:\8th_Sem\EE360A\Assignments\EE360_Assignments\Assignment2\Q6\6.asc

Direct Newton iteration for .op point succeeded.
Semiconductor Device Operating Points:
                        --- Diodes ---
Name:      d2          d1
Model:  diodesc2    diodesc1
Id:      1.04e-14    1.39e-14
Vd:      9.29e-03    1.07e-02
Req:     9.97e+11    9.97e+11
CAP:     0.00e+00    0.00e+00



Date: Wed Feb 12 08:56:14 2020
Total elapsed time: 1.245 seconds.

tnom = 27
temp = 27
method = trap
totiter = 10
traniter = 0
tranpoints = 0
accept = 0
rejected = 0
matrix size = 4
fillins = 0
solver = Normal
Matrix Compiler1: 154 bytes object code size
Matrix Compiler2: 262 bytes object code size
