Circuit: * E:\8th_Sem\EE360A\Assignments\EE360_Assignments\Assignment2\Q6\6.asc

Direct Newton iteration failed to find .op point.  (Use ".option noopiter" to skip.)
Starting Gmin stepping
Gmin = 10
Gmin = 1.07374
Gmin = 0.115292
Gmin = 0.0123794
Gmin = 0.00132923
Gmin = 0.000142725
Gmin = 1.5325e-005
Gmin = 1.6455e-006
Gmin = 1.76685e-007
Gmin = 1.89714e-008
Gmin = 2.03704e-009
Gmin = 2.18725e-010
Gmin = 2.34854e-011
Gmin = 2.52173e-012
vernier = 0.5
vernier = 0.25
Gmin = 8.16118e-013
vernier = 0.125
Gmin = 5.66215e-013
vernier = 0.0625
vernier = 0.03125
vernier = 0.015625
Gmin = 5.48853e-013
vernier = 0.0078125
vernier = 0.00390625
vernier = 0.00195313
vernier = 0.000976563
Gmin = 5.4805e-013
vernier = 0.000488281
Gmin = 0
Gmin stepping failed

Starting source stepping with srcstepmethod=0
Source Step = 3.0303%
Source Step = 33.3333%
Source Step = 63.6364%
Source Step = 84.0909%
Source Step = 84.742%
Source Step = 84.7686%
Source Step = 84.7982%
Source Step = 84.8278%
Source Step = 84.8574%
Source Step = 84.887%
vernier = 0.00146484
Source Step = 84.9269%
Source Step = 84.9713%
Source Step = 85.0157%
Source Step = 85.0601%
Source Step = 85.1045%
vernier = 0.00219727
Source Step = 85.1622%
Source Step = 85.2288%
Source Step = 85.2953%
Source Step = 85.3619%
Source Step = 85.4285%
vernier = 0.0032959
Source Step = 85.5117%
Source Step = 85.6116%
Source Step = 85.7115%
Source Step = 85.8114%
Source Step = 85.9112%
vernier = 0.00494385
Source Step = 86.0311%
Source Step = 86.1809%
Source Step = 86.3307%
Source Step = 86.4805%
Source Step = 86.6303%
vernier = 0.00741577
Source Step = 86.8026%
Source Step = 87.0273%
Source Step = 87.2521%
Source Step = 87.4768%
Source Step = 87.7015%
vernier = 0.0111237
Source Step = 87.9487%
Source Step = 88.2858%
Source Step = 88.6229%
Source Step = 88.9599%
Source Step = 89.297%
vernier = 0.0166855
Source Step = 89.651%
Source Step = 90.1566%
Source Step = 90.6622%
Source Step = 91.1678%
Source Step = 91.2689%
Source Step = 91.3005%
Source Step = 91.3321%
Source Step = 91.3637%
Source Step = 91.3953%
Source Step = 91.427%
Source Step = 91.4586%
Source Step = 91.4902%
Source Step = 91.5218%
Source Step = 91.5534%
Source Step = 91.585%
Source Step = 91.6166%
Source Step = 91.6482%
Source Step = 91.6798%
Source Step = 91.7114%
Source Step = 91.743%
Source Step = 91.7746%
Source Step = 91.8062%
Source Step = 91.8378%
Source Step = 91.8694%
Source Step = 91.901%
Source Step = 91.9326%
Source Step = 91.9642%
Source Step = 91.9958%
Source Step = 92.0274%
Source Step = 92.059%
Source Step = 92.0906%
Source Step = 92.1222%
Source Step = 92.1538%
Source Step = 92.1854%
Source Step = 92.217%
Source Step = 92.2486%
Source Step = 92.2802%
Source Step = 92.3118%
Source Step = 92.3434%
Source Step = 92.375%
Source Step = 92.4066%
Source Step = 92.4382%
Source Step = 92.4698%
Source Step = 92.5014%
Source Step = 92.533%
Source Step = 92.5646%
vernier = 0.00156426
Source Step = 92.6025%
Source Step = 92.6499%
Source Step = 92.6973%
Source Step = 92.7447%
Source Step = 92.7921%
Source Step = 92.8395%
vernier = 0.0023464
Source Step = 92.9059%
Source Step = 92.977%
Source Step = 93.0481%
Source Step = 93.1192%
Source Step = 93.1903%
Source Step = 93.2614%
Source Step = 93.3325%
Source Step = 93.4036%
Source Step = 93.4747%
Source Step = 93.5458%
Source Step = 93.6169%
Source Step = 93.688%
Source Step = 93.7591%
Source Step = 93.8302%
vernier = 0.00351959
Source Step = 93.8996%
Source Step = 93.9262%
Source Step = 93.9529%
Source Step = 93.9795%
Source Step = 94.0062%
Source Step = 94.0329%
vernier = 0.00131985
Source Step = 94.0715%
Source Step = 94.1115%
Source Step = 94.1515%
Source Step = 94.1915%
Source Step = 94.2315%
vernier = 0.00197977
Source Step = 94.2875%
Source Step = 94.3475%
Source Step = 94.4075%
Source Step = 94.4675%
Source Step = 94.5275%
Source Step = 94.5875%
Source Step = 94.6475%
Source Step = 94.7075%
Source Step = 94.7675%
Source Step = 94.8274%
Source Step = 94.8874%
Source Step = 94.9474%
Source Step = 95.0074%
Source Step = 95.0674%
Source Step = 95.1274%
Source Step = 95.1874%
Source Step = 95.2474%
Source Step = 95.3074%
Source Step = 95.3674%
Source Step = 95.4274%
Source Step = 95.4874%
Source Step = 95.5474%
Source Step = 95.6074%
Source Step = 95.6674%
Source Step = 95.7273%
Source Step = 95.7873%
Source Step = 95.8473%
Source Step = 95.9073%
Source Step = 95.9673%
Source Step = 96.0273%
Source Step = 96.0873%
Source Step = 96.1473%
Source Step = 96.2073%
Source Step = 96.2673%
Source Step = 96.3273%
Source Step = 96.3873%
Source Step = 96.4473%
Source Step = 96.5073%
Source Step = 96.5672%
Source Step = 96.6272%
Source Step = 96.6872%
Source Step = 96.7472%
Source Step = 96.8072%
Source Step = 96.8672%
Source Step = 96.9272%
Source Step = 96.9872%
Source Step = 97.0472%
Source Step = 97.1072%
Source Step = 97.1672%
Source Step = 97.2272%
Source Step = 97.2872%
Source Step = 97.3472%
Source Step = 97.4072%
Source Step = 97.4671%
Source Step = 97.5271%
Source Step = 97.5871%
Source Step = 97.6471%
Source Step = 97.7071%
Source Step = 97.7671%
Source Step = 97.8271%
Source Step = 97.8871%
Source Step = 97.9471%
Source Step = 98.0071%
Source Step = 98.0671%
Source Step = 98.1271%
Source Step = 98.1871%
Source Step = 98.2471%
Source Step = 98.307%
Source Step = 98.367%
Source Step = 98.427%
Source Step = 98.487%
Source Step = 98.547%
Source Step = 98.607%
Source Step = 98.667%
Source Step = 98.727%
Source Step = 98.787%
Source Step = 98.847%
Source Step = 98.907%
Source Step = 98.967%
Source Step = 99.027%
Source Step = 99.087%
Source Step = 99.147%
Source Step = 99.2069%
Source Step = 99.2669%
Source Step = 99.3269%
Source Step = 99.3869%
Source Step = 99.4469%
Source Step = 99.5069%
Source Step = 99.5669%
Source Step = 99.6269%
Source Step = 99.6869%
Source Step = 99.7469%
Source Step = 99.8069%
Source Step = 99.8669%
Source Step = 99.9269%
Source Step = 99.9869%
Source Step = 100%
Source Step = 100%
Source stepping succeeded in finding the operating point.

Direct Newton iteration failed to find .op point.  (Use ".option noopiter" to skip.)
Starting Gmin stepping
Gmin = 10
Gmin = 1.07374
Gmin = 0.115292
Gmin = 0.0123794
Gmin = 0.00132923
Gmin = 0.000142725
Gmin = 1.5325e-005
Gmin = 1.6455e-006
Gmin = 1.76685e-007
Gmin = 1.89714e-008
Gmin = 2.03704e-009
Gmin = 2.18725e-010
Gmin = 2.34854e-011
Gmin = 2.52173e-012
vernier = 0.5
Gmin = 4.70084e-013
vernier = 0.25
vernier = 0.125
vernier = 0.0625
vernier = 0.03125
vernier = 0.015625
vernier = 0.0078125
vernier = 0.00390625
Gmin = 4.97736e-013
vernier = 0.00195313
vernier = 0.000976563
vernier = 0.000488281
Gmin = 0
Gmin stepping failed

Starting source stepping with srcstepmethod=0
Source Step = 3.0303%
Source Step = 33.3333%
Source Step = 63.6364%
Source Step = 84.0909%
Source Step = 84.742%
Source Step = 84.7686%
Source Step = 84.7982%
Source Step = 84.8278%
Source Step = 84.8574%
Source Step = 84.887%
vernier = 0.00146484
Source Step = 84.9254%
Source Step = 84.9698%
Source Step = 85.0142%
Source Step = 85.0586%
Source Step = 85.103%
vernier = 0.00219727
Source Step = 85.1585%
Source Step = 85.2251%
Source Step = 85.2916%
Source Step = 85.3582%
Source Step = 85.4248%
vernier = 0.0032959
Source Step = 85.5047%
Source Step = 85.6046%
Source Step = 85.7045%
Source Step = 85.8043%
Source Step = 85.9042%
vernier = 0.00494385
Source Step = 86.0191%
Source Step = 86.1689%
Source Step = 86.3187%
Source Step = 86.4685%
Source Step = 86.6183%
vernier = 0.00741577
Source Step = 86.7831%
Source Step = 87.0078%
Source Step = 87.2326%
Source Step = 87.4573%
Source Step = 87.682%
vernier = 0.0111237
Source Step = 87.918%
Source Step = 88.255%
Source Step = 88.5921%
Source Step = 88.9292%
Source Step = 89.2663%
Source Step = 89.6034%
vernier = 0.0166855
Source Step = 90.109%
Source Step = 90.6146%
Source Step = 90.88%
Source Step = 91.0065%
Source Step = 91.0444%
Source Step = 91.076%
Source Step = 91.1076%
Source Step = 91.1392%
Source Step = 91.1708%
Source Step = 91.2024%
Source Step = 91.234%
Source Step = 91.2656%
Source Step = 91.2972%
Source Step = 91.3288%
Source Step = 91.3604%
Source Step = 91.392%
Source Step = 91.4236%
Source Step = 91.4552%
Source Step = 91.4868%
Source Step = 91.5184%
Source Step = 91.55%
Source Step = 91.5816%
Source Step = 91.6132%
Source Step = 91.6448%
Source Step = 91.6764%
Source Step = 91.708%
Source Step = 91.7396%
Source Step = 91.7712%
Source Step = 91.8028%
Source Step = 91.8344%
Source Step = 91.866%
Source Step = 91.8976%
Source Step = 91.9292%
Source Step = 91.9608%
Source Step = 91.9924%
Source Step = 92.024%
Source Step = 92.0556%
Source Step = 92.0872%
Source Step = 92.1188%
Source Step = 92.1504%
Source Step = 92.182%
Source Step = 92.2136%
Source Step = 92.2452%
Source Step = 92.2768%
Source Step = 92.3084%
vernier = 0.00156426
Source Step = 92.3542%
Source Step = 92.4016%
Source Step = 92.4491%
Source Step = 92.4965%
Source Step = 92.5439%
Source Step = 92.5913%
Source Step = 92.6387%
Source Step = 92.6861%
Source Step = 92.7335%
Source Step = 92.7809%
vernier = 0.0023464
Source Step = 92.8401%
Source Step = 92.9112%
Source Step = 92.9823%
Source Step = 93.0534%
Source Step = 93.1245%
Source Step = 93.1956%
Source Step = 93.2667%
Source Step = 93.3378%
Source Step = 93.4089%
Source Step = 93.48%
Source Step = 93.5511%
Source Step = 93.6222%
Source Step = 93.6934%
Source Step = 93.7645%
Source Step = 93.8356%
Source Step = 93.9067%
Source Step = 93.9778%
Source Step = 94.0489%
Source Step = 94.12%
Source Step = 94.1911%
Source Step = 94.2622%
Source Step = 94.3333%
Source Step = 94.4044%
Source Step = 94.4755%
Source Step = 94.5466%
Source Step = 94.6177%
Source Step = 94.6888%
Source Step = 94.7599%
Source Step = 94.831%
Source Step = 94.9021%
Source Step = 94.9732%
Source Step = 95.0443%
Source Step = 95.1154%
Source Step = 95.1865%
Source Step = 95.2576%
Source Step = 95.3287%
Source Step = 95.3998%
Source Step = 95.4709%
Source Step = 95.542%
Source Step = 95.6131%
Source Step = 95.6842%
Source Step = 95.7553%
Source Step = 95.8264%
Source Step = 95.8975%
Source Step = 95.9686%
Source Step = 96.0397%
Source Step = 96.1109%
Source Step = 96.182%
Source Step = 96.2531%
Source Step = 96.3242%
Source Step = 96.3953%
Source Step = 96.4664%
Source Step = 96.5375%
Source Step = 96.6086%
Source Step = 96.6797%
Source Step = 96.7508%
Source Step = 96.8219%
Source Step = 96.893%
Source Step = 96.9641%
Source Step = 97.0352%
Source Step = 97.1063%
Source Step = 97.1774%
Source Step = 97.2485%
Source Step = 97.3196%
Source Step = 97.3907%
Source Step = 97.4618%
Source Step = 97.5329%
Source Step = 97.604%
Source Step = 97.6751%
Source Step = 97.7462%
Source Step = 97.8173%
Source Step = 97.8884%
Source Step = 97.9595%
Source Step = 98.0306%
Source Step = 98.1017%
Source Step = 98.1728%
Source Step = 98.2439%
Source Step = 98.315%
Source Step = 98.3861%
Source Step = 98.4572%
Source Step = 98.5284%
Source Step = 98.5995%
Source Step = 98.6706%
Source Step = 98.7417%
Source Step = 98.8128%
Source Step = 98.8839%
Source Step = 98.955%
Source Step = 99.0261%
Source Step = 99.0972%
Source Step = 99.1683%
Source Step = 99.2394%
Source Step = 99.3105%
Source Step = 99.3816%
Source Step = 99.4527%
Source Step = 99.5238%
Source Step = 99.5949%
Source Step = 99.666%
Source Step = 99.7371%
Source Step = 99.8082%
Source Step = 99.8793%
Source Step = 99.9504%
Source Step = 100%
Source Step = 100%
Source Step = 100%
Source Step = 100%
Source Step = 100%
Source Step = 100%
Source Step = 100%
Source Step = 100%
Source Step = 100%
Source Step = 100%
Source Step = 100%
Source Step = 100%
Source Step = 100%
Source Step = 100%
Source Step = 100%
Source Step = 100%
Source Step = 100%
Source Step = 100%
Source Step = 100%
Source Step = 100%
Source Step = 100%
Source Step = 100%
Source Step = 100%
Source Step = 100%
Source Step = 100%
Source Step = 100%
Source Step = 100%
Source Step = 100%
Source Step = 100%
Source Step = 100%
Source Step = 100%
Source Step = 100%
Source Step = 100%
Source Step = 100%
Source Step = 100%
Source Step = 100%
Source Step = 100%
Source Step = 100%
Source Step = 100%
Source Step = 100%
Source Step = 100%
Source Step = 100%
Source Step = 100%
Source Step = 100%
Source Step = 100%
Source Step = 100%
Source Step = 100%
Source Step = 100%
Source Step = 100%
Source Step = 100%
Source Step = 100%
Source Step = 100%
Source Step = 100%
Source Step = 100%
Source Step = 100%
Source Step = 100%
Source Step = 100%
Source Step = 100%
Source Step = 100%
Source Step = 100%
Source Step = 100%
Source Step = 100%
Source Step = 100%
Source Step = 100%
Source Step = 100%
Source Step = 100%
Source Step = 100%
Source Step = 100%
Source Step = 100%
Source Step = 100%
Source Step = 100%
Source Step = 100%
Source Step = 100%
Source Step = 100%
Source Step = 100%
Source Step = 100%
Source Step = 100%
Source Step = 100%
Source Step = 100%
Source Step = 100%
Source Step = 100%
Source Step = 100%
Source Step = 100%
Source Step = 100%
Source Step = 100%
Source Step = 100%
Source Step = 100%
Source Step = 100%
Source Step = 100%
Source Step = 100%
Source Step = 100%
Source Step = 100%
Source Step = 100%
Source Step = 100%
Source Step = 100%
Source Step = 100%
Source Step = 100%
Source Step = 100%
Source Step = 100%
Source Step = 100%
Source Step = 100%
Source Step = 100%
Source Step = 100%
Source Step = 100%
Source Step = 100%
Source Step = 100%
Source Step = 100%
Source Step = 100%
Source Step = 100%
Source Step = 100%
Source Step = 100%
Source Step = 100%
Source Step = 100%
Source Step = 100%
Source Step = 100%
Source Step = 100%
Source Step = 100%
Source Step = 100%
Source Step = 100%
Source Step = 100%
Source Step = 100%
Source Step = 100%
Source Step = 100%
Source Step = 100%
Source Step = 100%
Source Step = 100%
Source Step = 100%
Source Step = 100%
Source Step = 100%
Source Step = 100%
Source Step = 100%
Source Step = 100%
Source Step = 100%
Source Step = 100%
Source Step = 100%
Source Step = 100%
Source Step = 100%
Source Step = 100%
Source Step = 100%
Source Step = 100%
Source Step = 100%
Source Step = 100%
Source Step = 100%
Source Step = 100%
Source Step = 100%
Source Step = 100%
Source Step = 100%
Source Step = 100%
Source Step = 100%
Source Step = 100%
Source Step = 100%
Source Step = 100%
Source Step = 100%
Source Step = 100%
Source Step = 100%
Source Step = 100%
Source Step = 100%
Source Step = 100%
Source Step = 100%
Source Step = 100%
Source Step = 100%
Source Step = 100%
Source Step = 100%
Source Step = 100%
Source Step = 100%
Source Step = 100%
Source Step = 100%
Source Step = 100%
Source Step = 100%
Source Step = 100%
Source Step = 100%
Source Step = 100%
Source Step = 100%
Source Step = 100%
Source Step = 100%
Source Step = 100%
Source Step = 100%
Source Step = 100%
Source Step = 100%
Source Step = 100%
Source Step = 100%
Source Step = 100%
Source Step = 100%
Source Step = 100%
Source Step = 100%
Source Step = 100%
Source Step = 100%
Source Step = 100%
Source Step = 100%
Source Step = 100%
Source Step = 100%
Source Step = 100%
Source Step = 100%
Source Step = 100%
Source Step = 100%
Source Step = 100%
Source Step = 100%
Source Step = 100%
Source Step = 100%
Source Step = 100%
Source Step = 100%
Source Step = 100%
Source Step = 100%
Source Step = 100%
Source Step = 100%
Source Step = 100%
Source Step = 100%
Source Step = 100%
Source Step = 100%
Source Step = 100%
Source Step = 100%
Source Step = 100%
Source Step = 100%
Source Step = 100%
Source Step = 100%
Source Step = 100%
Source Step = 100%
Source Step = 100%
Source Step = 100%
Source Step = 100%
Source Step = 100%
Source Step = 100%
Source Step = 100%
Source Step = 100%
Source Step = 100%
Source Step = 100%
Source Step = 100%
Source Step = 100%
Source Step = 100%
Source Step = 100%
Source Step = 100%
Source Step = 100%
Source Step = 100%
Source Step = 100%
Source Step = 100%
Source Step = 100%
Source Step = 100%
Source Step = 100%
Source Step = 100%
Source Step = 100%
Source Step = 100%
Source Step = 100%
Source Step = 100%
Source Step = 100%
Source Step = 100%
Source Step = 100%
Source Step = 100%
Source Step = 100%
Source Step = 100%
Source Step = 100%
Source Step = 100%
Source Step = 100%
Source Step = 100%
Source Step = 100%
Source Step = 100%
Source Step = 100%
Source Step = 100%
Source Step = 100%
Source Step = 100%
Source Step = 100%
Source Step = 100%
Source Step = 100%
Source Step = 100%
Source Step = 100%
Source Step = 100%
Source Step = 100%
Source Step = 100%
Source Step = 100%
Source Step = 100%
Source Step = 100%
Source Step = 100%
Source Step = 100%
Source Step = 100%
Source Step = 100%
Source Step = 100%
Source Step = 100%
Source Step = 100%
Source Step = 100%
Source Step = 100%
Source Step = 100%
Source Step = 100%
Source Step = 100%
Source Step = 100%
Source Step = 100%
Source Step = 100%
Source Step = 100%
Source Step = 100%
Source Step = 100%
Source Step = 100%
Source Step = 100%
Source Step = 100%
Source Step = 100%
Source Step = 100%
Source Step = 100%
Source Step = 100%
Source Step = 100%
Source Step = 100%
Source Step = 100%
Source Step = 100%
Source Step = 100%
Source Step = 100%
Source Step = 100%
Source Step = 100%
Source Step = 100%
Source Step = 100%
Source Step = 100%
Source Step = 100%
Source Step = 100%
Source Step = 100%
Source Step = 100%
Source Step = 100%
Source Step = 100%
Source Step = 100%
Source Step = 100%
Source Step = 100%
Source Step = 100%
Source Step = 100%
Source Step = 100%
Source Step = 100%
Source Step = 100%
Source Step = 100%
Source Step = 100%
Source Step = 100%
Source Step = 100%
Source Step = 100%
Source Step = 100%
Source Step = 100%
Source Step = 100%
Source Step = 100%
Source Step = 100%
Source Step = 100%
Source Step = 100%
Source Step = 100%
Source Step = 100%
Source Step = 100%
Source Step = 100%
Source Step = 100%
Source Step = 100%
Source Step = 100%
Source Step = 100%
Source Step = 100%
Source Step = 100%
Source Step = 100%
Source Step = 100%
Source Step = 100%
Source Step = 100%
Source Step = 100%
Source Step = 100%
Source Step = 100%
Source Step = 100%
Source Step = 100%
Source Step = 100%
Source Step = 100%
Source Step = 100%
Source Step = 100%
Source Step = 100%
Source Step = 100%
Source Step = 100%
Source Step = 100%
Source Step = 100%
Source Step = 100%
Source Step = 100%
Source Step = 100%
Source Step = 100%
Source Step = 100%
Source Step = 100%
Source Step = 100%
Source Step = 100%
Source Step = 100%
Source Step = 100%
Source Step = 100%
Source Step = 100%
Source Step = 100%
Source Step = 100%
Source Step = 100%
Source Step = 100%
Source Step = 100%
Source Step = 100%
Source Step = 100%
Source Step = 100%
Source Step = 100%
Source Step = 100%
Source Step = 100%
Source Step = 100%
Source Step = 100%
Source Step = 100%
Source Step = 100%
Source Step = 100%
Source Step = 100%
Source Step = 100%
Source Step = 100%
Source Step = 100%
Source Step = 100%
Source Step = 100%
Source Step = 100%
Source Step = 100%
Source Step = 100%
Source Step = 100%
Source Step = 100%
Source Step = 100%
Source Step = 100%
Source Step = 100%
Source Step = 100%
Source Step = 100%
Source Step = 100%
Source Step = 100%
Source Step = 100%
Source Step = 100%
Source Step = 100%
Source Step = 100%
Source Step = 100%
Source Step = 100%
Source Step = 100%
Source Step = 100%
Source Step = 100%
Source Step = 100%
Source Step = 100%
Source Step = 100%
Source Step = 100%
Source Step = 100%
Source Step = 100%
Source Step = 100%
Source Step = 100%
Source Step = 100%
Source Step = 100%
Source Step = 100%
Source Step = 100%
Source Step = 100%
Source Step = 100%
Source Step = 100%
Source Step = 100%
Source Step = 100%
Source Step = 100%
Source Step = 100%
Source Step = 100%
Source Step = 100%
Source Step = 100%
Source Step = 100%
Source Step = 100%
Source Step = 100%
Source Step = 100%
Source Step = 100%
Source Step = 100%
Source Step = 100%
Source Step = 100%
Source Step = 100%
Source Step = 100%
Source Step = 100%
Source Step = 100%
Source Step = 100%
Source Step = 100%
Source Step = 100%
Source Step = 100%
Source Step = 100%
Source Step = 100%
Source Step = 100%
Source Step = 100%
Source Step = 100%
Source Step = 100%
Source Step = 100%
Source Step = 100%
Source Step = 100%
Source Step = 100%
Source Step = 100%
Source Step = 100%
Source Step = 100%
Source Step = 100%
Source Step = 100%
Source Step = 100%
Source Step = 100%
Source Step = 100%
Source Step = 100%
Source Step = 100%
Source Step = 100%
Source Step = 100%
Source Step = 100%
Source Step = 100%
Source Step = 100%
Source Step = 100%
Source Step = 100%
Source Step = 100%
Source Step = 100%
Source Step = 100%
Source Step = 100%
Source Step = 100%
Source Step = 100%
Source Step = 100%
Source Step = 100%
Source Step = 100%
Source Step = 100%
Source Step = 100%
Source Step = 100%
Source Step = 100%
Source Step = 100%
Source Step = 100%
Source Step = 100%
Source Step = 100%
Source Step = 100%
Source Step = 100%
Source Step = 100%
Source Step = 100%
Source Step = 100%
Source Step = 100%
Source Step = 100%
Source Step = 100%
Source Step = 100%
Source Step = 100%
Source Step = 100%
Source Step = 100%
Source Step = 100%
Source Step = 100%
Source Step = 100%
Source Step = 100%
Source Step = 100%
Source Step = 100%
Source Step = 100%
Source Step = 100%
Source Step = 100%
Source Step = 100%
Source Step = 100%
Source Step = 100%
Source Step = 100%
Source Step = 100%
Source Step = 100%
Source Step = 100%
Source Step = 100%
Source Step = 100%
Source Step = 100%
Source Step = 100%
Source Step = 100%
Source Step = 100%
Source Step = 100%
Source Step = 100%
Source Step = 100%
Source Step = 100%
Source Step = 100%
Source Step = 100%
Source Step = 100%
Source Step = 100%
Source Step = 100%
Source Step = 100%
Source Step = 100%
Source Step = 100%
Source Step = 100%
Source Step = 100%
Source Step = 100%
Source Step = 100%
Source Step = 100%
Source Step = 100%
Source Step = 100%
Source Step = 100%
Source Step = 100%
Source Step = 100%
Source Step = 100%
Source Step = 100%
Source stepping aborted.
Starting source stepping with srcstepmethod=1
Source Step = 3.0303%
Source Step = 33.3333%
Source Step = 63.6364%
Source Step = 93.9394%
vernier = 0.25
Source Step = 93.3357%
vernier = 0.000976563
Source Step = 93.3535%
Source Step = 93.383%
Source Step = 93.4126%
Source Step = 93.4422%
Source Step = 93.4718%
Source Step = 93.5014%
Source Step = 93.531%
Source Step = 93.5606%
Source Step = 93.5902%
Source Step = 93.6198%
Source Step = 93.6494%
Source Step = 93.679%
Source Step = 93.7086%
Source Step = 93.7382%
Source Step = 93.7678%
Source Step = 93.7973%
Source Step = 93.8269%
Source Step = 93.8565%
Source Step = 93.8861%
Source Step = 93.9157%
Source Step = 93.9453%
Source Step = 93.9749%
Source Step = 94.0045%
Source Step = 94.0341%
Source Step = 94.0637%
Source Step = 94.0933%
Source Step = 94.1229%
Source Step = 94.1525%
Source Step = 94.1821%
Source Step = 94.2116%
Source Step = 94.2412%
Source Step = 94.2708%
Source Step = 94.3004%
Source Step = 94.33%
Source Step = 94.3596%
Source Step = 94.3892%
Source Step = 94.4188%
Source Step = 94.4484%
Source Step = 94.478%
Source Step = 94.5076%
Source Step = 94.5372%
Source Step = 94.5668%
Source Step = 94.5964%
Source Step = 94.6259%
Source Step = 94.6555%
Source Step = 94.6851%
Source Step = 94.7147%
Source Step = 94.7443%
Source Step = 94.7739%
Source Step = 94.8035%
Source Step = 94.8331%
Source Step = 94.8627%
Source Step = 94.8923%
Source Step = 94.9219%
Source Step = 94.9515%
Source Step = 94.9811%
Source Step = 95.0107%
Source Step = 95.0402%
Source Step = 95.0698%
Source Step = 95.0994%
Source Step = 95.129%
Source Step = 95.1586%
Source Step = 95.1882%
Source Step = 95.2178%
Source Step = 95.2474%
Source Step = 95.277%
Source Step = 95.3066%
Source Step = 95.3362%
Source Step = 95.3658%
Source Step = 95.3954%
Source Step = 95.425%
Source Step = 95.4545%
Source Step = 95.4841%
Source Step = 95.5137%
Source Step = 95.5433%
Source Step = 95.5729%
Source Step = 95.6025%
Source Step = 95.6321%
Source Step = 95.6617%
Source Step = 95.6913%
Source Step = 95.7209%
Source Step = 95.7505%
Source Step = 95.7801%
Source Step = 95.8097%
Source Step = 95.8393%
Source Step = 95.8688%
Source Step = 95.8984%
Source Step = 95.928%
Source Step = 95.9576%
Source Step = 95.9872%
Source Step = 96.0168%
Source Step = 96.0464%
Source Step = 96.076%
Source Step = 96.1056%
Source Step = 96.1352%
Source Step = 96.1648%
Source Step = 96.1944%
Source Step = 96.224%
Source Step = 96.2536%
Source Step = 96.2831%
Source Step = 96.3127%
Source Step = 96.3423%
Source Step = 96.3719%
Source Step = 96.4015%
Source Step = 96.4311%
Source Step = 96.4607%
Source Step = 96.4903%
Source Step = 96.5199%
Source Step = 96.5495%
Source Step = 96.5791%
Source Step = 96.6087%
Source Step = 96.6383%
Source Step = 96.6679%
Source Step = 96.6974%
Source Step = 96.727%
Source Step = 96.7566%
Source Step = 96.7862%
Source Step = 96.8158%
Source Step = 96.8454%
Source Step = 96.875%
Source Step = 96.9046%
Source Step = 96.9342%
Source Step = 96.9638%
Source Step = 96.9934%
Source Step = 97.023%
Source Step = 97.0526%
Source Step = 97.0821%
Source Step = 97.1117%
Source Step = 97.1413%
Source Step = 97.1709%
Source Step = 97.2005%
Source Step = 97.2301%
Source Step = 97.2597%
Source Step = 97.2893%
Source Step = 97.3189%
Source Step = 97.3485%
Source Step = 97.3781%
Source Step = 97.4077%
Source Step = 97.4373%
Source Step = 97.4669%
Source Step = 97.4964%
Source Step = 97.526%
Source Step = 97.5556%
Source Step = 97.5852%
Source Step = 97.6148%
Source Step = 97.6444%
Source Step = 97.674%
Source Step = 97.7036%
Source Step = 97.7332%
Source Step = 97.7628%
Source Step = 97.7924%
Source Step = 97.822%
Source Step = 97.8516%
Source Step = 97.8812%
Source Step = 97.9107%
Source Step = 97.9403%
Source Step = 97.9699%
Source Step = 97.9995%
Source Step = 98.0291%
Source Step = 98.0587%
Source Step = 98.0883%
Source Step = 98.1179%
Source Step = 98.1475%
Source Step = 98.1771%
Source Step = 98.2067%
Source Step = 98.2363%
Source Step = 98.2659%
Source Step = 98.2955%
Source Step = 98.325%
Source Step = 98.3546%
Source Step = 98.3842%
Source Step = 98.4138%
Source Step = 98.4434%
Source Step = 98.473%
Source Step = 98.5026%
Source Step = 98.5322%
Source Step = 98.5618%
Source Step = 98.5914%
Source Step = 98.621%
Source Step = 98.6506%
Source Step = 98.6802%
Source Step = 98.7098%
Source Step = 98.7393%
Source Step = 98.7689%
Source Step = 98.7985%
Source Step = 98.8281%
Source Step = 98.8577%
Source Step = 98.8873%
Source Step = 98.9169%
Source Step = 98.9465%
Source Step = 98.9761%
Source Step = 99.0057%
Source Step = 99.0353%
Source Step = 99.0649%
Source Step = 99.0945%
Source Step = 99.1241%
Source Step = 99.1536%
Source Step = 99.1832%
Source Step = 99.2128%
Source Step = 99.2424%
Source Step = 99.272%
Source Step = 99.3016%
Source Step = 99.3312%
Source Step = 99.3608%
Source Step = 99.3904%
Source Step = 99.42%
Source Step = 99.4496%
Source Step = 99.4792%
Source Step = 99.5088%
Source Step = 99.5384%
Source Step = 99.5679%
Source Step = 99.5975%
Source Step = 99.6271%
Source Step = 99.6567%
Source Step = 99.6863%
Source Step = 99.7159%
Source Step = 99.7455%
Source Step = 99.7751%
Source Step = 99.8047%
Source Step = 99.8343%
Source Step = 99.8639%
Source Step = 99.8935%
Source Step = 99.9231%
Source Step = 99.9527%
Source Step = 99.9822%
Source Step = 100%
Source Step = 100%
Source Step = 100%
Source Step = 100%
Source Step = 100%
Source Step = 100%
Source Step = 100%
Source Step = 100%
Source Step = 100%
Source Step = 100%
Source Step = 100%
Source Step = 100%
Source Step = 100%
Source Step = 100%
Source Step = 100%
Source Step = 100%
Source Step = 100%
Source Step = 100%
Source Step = 100%
Source Step = 100%
Source Step = 100%
Source Step = 100%
Source Step = 100%
Source Step = 100%
Source Step = 100%
Source Step = 100%
Source Step = 100%
Source Step = 100%
Source Step = 100%
Source Step = 100%
Source Step = 100%
Source Step = 100%
Source Step = 100%
Source Step = 100%
Source Step = 100%
Source Step = 100%
Source Step = 100%
Source Step = 100%
Source Step = 100%
Source Step = 100%
Source Step = 100%
Source Step = 100%
Source Step = 100%
Source Step = 100%
Source Step = 100%
Source Step = 100%
Source Step = 100%
Source Step = 100%
Source Step = 100%
Source Step = 100%
Source Step = 100%
Source Step = 100%
Source Step = 100%
Source Step = 100%
Source Step = 100%
Source Step = 100%
Source Step = 100%
Source Step = 100%
Source Step = 100%
Source Step = 100%
Source Step = 100%
Source Step = 100%
Source Step = 100%
Source Step = 100%
Source Step = 100%
Source Step = 100%
Source Step = 100%
Source Step = 100%
Source Step = 100%
Source Step = 100%
Source Step = 100%
Source Step = 100%
Source Step = 100%
Source Step = 100%
Source Step = 100%
Source Step = 100%
Source Step = 100%
Source Step = 100%
Source Step = 100%
Source Step = 100%
Source Step = 100%
Source Step = 100%
Source Step = 100%
Source Step = 100%
Source Step = 100%
Source Step = 100%
Source Step = 100%
Source Step = 100%
Source Step = 100%
Source Step = 100%
Source Step = 100%
Source Step = 100%
Source Step = 100%
Source Step = 100%
Source Step = 100%
Source Step = 100%
Source Step = 100%
Source Step = 100%
Source Step = 100%
Source Step = 100%
Source Step = 100%
Source Step = 100%
Source Step = 100%
Source Step = 100%
Source Step = 100%
Source Step = 100%
Source Step = 100%
Source Step = 100%
Source Step = 100%
Source Step = 100%
Source Step = 100%
Source Step = 100%
Source Step = 100%
Source Step = 100%
Source Step = 100%
Source Step = 100%
Source Step = 100%
Source Step = 100%
Source Step = 100%
Source Step = 100%
Source Step = 100%
Source Step = 100%
Source Step = 100%
Source Step = 100%
Source Step = 100%
Source Step = 100%
Source Step = 100%
Source Step = 100%
Source Step = 100%
Source Step = 100%
Source Step = 100%
Source Step = 100%
Source Step = 100%
Source Step = 100%
Source Step = 100%
Source Step = 100%
Source Step = 100%
Source Step = 100%
Source Step = 100%
Source Step = 100%
Source Step = 100%
Source Step = 100%
Source Step = 100%
Source Step = 100%
Source Step = 100%
Source Step = 100%
Source Step = 100%
Source Step = 100%
Source Step = 100%
Source Step = 100%
Source Step = 100%
Source Step = 100%
Source Step = 100%
Source Step = 100%
Source Step = 100%
Source Step = 100%
Source Step = 100%
Source Step = 100%
Source Step = 100%
Source Step = 100%
Source Step = 100%
Source Step = 100%
Source Step = 100%
Source Step = 100%
Source Step = 100%
Source Step = 100%
Source Step = 100%
Source Step = 100%
Source Step = 100%
Source Step = 100%
Source Step = 100%
Source Step = 100%
Source Step = 100%
Source Step = 100%
Source Step = 100%
Source Step = 100%
Source Step = 100%
Source Step = 100%
Source Step = 100%
Source Step = 100%
Source Step = 100%
Source Step = 100%
Source Step = 100%
Source Step = 100%
Source Step = 100%
Source Step = 100%
Source Step = 100%
Source Step = 100%
Source Step = 100%
Source Step = 100%
Source Step = 100%
Source Step = 100%
Source Step = 100%
Source Step = 100%
Source Step = 100%
Source Step = 100%
Source Step = 100%
Source Step = 100%
Source Step = 100%
Source Step = 100%
Source Step = 100%
Source Step = 100%
Source Step = 100%
Source Step = 100%
Source Step = 100%
Source Step = 100%
Source Step = 100%
Source Step = 100%
Source Step = 100%
Source Step = 100%
Source Step = 100%
Source Step = 100%
Source Step = 100%
Source Step = 100%
Source Step = 100%
Source Step = 100%
Source Step = 100%
Source Step = 100%
Source Step = 100%
Source Step = 100%
Source Step = 100%
Source Step = 100%
Source Step = 100%
Source stepping aborted.
Pseudo Transient failed in finding the operating point at 10.3161 탎.
Direct Newton iteration failed to find .op point.  (Use ".option noopiter" to skip.)
Starting Gmin stepping
Gmin = 10
Gmin = 1.07374
Gmin = 0.115292
Gmin = 0.0123794
Gmin = 0.00132923
Gmin = 0.000142725
Gmin = 1.5325e-005
Gmin = 1.6455e-006
Gmin = 1.76685e-007
Gmin = 1.89714e-008
Gmin = 2.03704e-009
Gmin = 2.18725e-010
Gmin = 2.34854e-011
Gmin = 2.52173e-012
vernier = 0.5
vernier = 0.25
vernier = 0.125
Gmin = 9.18133e-013
vernier = 0.0625
vernier = 0.03125
vernier = 0.015625
Gmin = 8.53293e-013
vernier = 0.0078125
vernier = 0.00390625
vernier = 0.00195313
vernier = 0.000976563
vernier = 0.000488281
Gmin = 8.52773e-013
Gmin = 0
Gmin stepping failed

Starting source stepping with srcstepmethod=0
Source Step = 3.0303%
Source Step = 33.3333%
Source Step = 63.6364%
Source Step = 93.9394%
vernier = 0.25
Source Step = 93.386%
Source Step = 93.4156%
Source Step = 93.4452%
Source Step = 93.4748%
Source Step = 93.5044%
Source Step = 93.534%
Source Step = 93.5636%
Source Step = 93.5932%
Source Step = 93.6228%
Source Step = 93.6523%
Source Step = 93.6819%
Source Step = 93.7115%
Source Step = 93.7411%
Source Step = 93.7707%
Source Step = 93.8003%
Source Step = 93.8299%
Source Step = 93.8595%
Source Step = 93.8891%
Source Step = 93.9187%
Source Step = 93.9483%
Source Step = 93.9779%
Source Step = 94.0075%
Source Step = 94.0371%
Source Step = 94.0666%
Source Step = 94.0962%
Source Step = 94.1258%
Source Step = 94.1554%
Source Step = 94.185%
Source Step = 94.2146%
Source Step = 94.2442%
Source Step = 94.2738%
Source Step = 94.3034%
Source Step = 94.333%
Source Step = 94.3626%
Source Step = 94.3922%
Source Step = 94.4218%
Source Step = 94.4513%
Source Step = 94.4809%
Source Step = 94.5105%
Source Step = 94.5401%
Source Step = 94.5697%
Source Step = 94.5993%
Source Step = 94.6289%
Source Step = 94.6585%
Source Step = 94.6881%
Source Step = 94.7177%
Source Step = 94.7473%
Source Step = 94.7769%
Source Step = 94.8065%
Source Step = 94.8361%
Source Step = 94.8656%
Source Step = 94.8952%
Source Step = 94.9248%
Source Step = 94.9544%
Source Step = 94.984%
Source Step = 95.0136%
Source Step = 95.0432%
Source Step = 95.0728%
Source Step = 95.1024%
Source Step = 95.132%
Source Step = 95.1616%
Source Step = 95.1912%
Source Step = 95.2208%
Source stepping aborted.
Starting source stepping with srcstepmethod=1
Source Step = 3.0303%
Source Step = 33.3333%
Source Step = 63.6364%
Source Step = 93.9394%
Source Step = 94.7088%
Source Step = 94.7384%
Source Step = 94.768%
Source Step = 94.7976%
Source Step = 94.8272%
Source Step = 94.8568%
Source Step = 94.8864%
Source Step = 94.916%
Source Step = 94.9455%
Source Step = 94.9751%
Source Step = 95.0047%
Source Step = 95.0343%
Source Step = 95.0639%
Source Step = 95.0935%
Source Step = 95.1231%
Source Step = 95.1527%
Source Step = 95.1823%
Source Step = 95.2119%
Source stepping aborted.
Pseudo Transient failed in finding the operating point at 10.0311 탎.
Direct Newton iteration failed to find .op point.  (Use ".option noopiter" to skip.)
Starting Gmin stepping
Gmin = 10
Gmin = 1.07374
Gmin = 0.115292
Gmin = 0.0123794
Gmin = 0.00132923
Gmin = 0.000142725
Gmin = 1.5325e-005
Gmin = 1.6455e-006
Gmin = 1.76685e-007
Gmin = 1.89714e-008
Gmin = 2.03704e-009
Gmin = 2.18725e-010
Gmin = 2.34854e-011
Gmin = 2.52173e-012
vernier = 0.5
Gmin = 4.23076e-013
vernier = 0.25
vernier = 0.125
vernier = 0.0625
vernier = 0.03125
vernier = 0.015625
vernier = 0.0078125
vernier = 0.00390625
Gmin = 0
Gmin stepping aborted per request.

Starting source stepping with srcstepmethod=0
Source Step = 3.0303%
Source Step = 33.3333%
Source Step = 63.6364%
Source Step = 93.9394%
vernier = 0.25
Source Step = 91.7702%
Source Step = 91.7998%
Source Step = 91.8294%
Source Step = 91.859%
Source Step = 91.8886%
Source Step = 91.9182%
Source Step = 91.9478%
Source Step = 91.9774%
Source Step = 92.007%
vernier = 0.00146484
Source Step = 92.0484%
Source Step = 92.0928%
Source Step = 92.1372%
Source Step = 92.1816%
Source Step = 92.226%
Source Step = 92.2704%
Source Step = 92.3147%
Source Step = 92.3591%
Source Step = 92.4035%
Source Step = 92.4479%
Source Step = 92.4923%
Source Step = 92.5367%
Source stepping aborted.
Starting source stepping with srcstepmethod=1
Source Step = 3.0303%
Source Step = 33.3333%
Source Step = 63.6364%
Source Step = 93.9394%
Source Step = 94.1406%
Source Step = 94.1702%
Source Step = 94.1998%
Source Step = 94.2294%
Source Step = 94.259%
Source Step = 94.2886%
Source Step = 94.3182%
Source Step = 94.3478%
Source Step = 94.3774%
Source Step = 94.407%
Source Step = 94.4366%
Source Step = 94.4661%
Source Step = 94.4957%
Source Step = 94.5253%
Source Step = 94.5549%
Source Step = 94.5845%
Source Step = 94.6141%
Source Step = 94.6437%
Source Step = 94.6733%
Source Step = 94.7029%
Source Step = 94.7325%
Source Step = 94.7621%
Source Step = 94.7917%
Source Step = 94.8213%
Source Step = 94.8509%
Source Step = 94.8804%
Source Step = 94.91%
Source Step = 94.9396%
Source Step = 94.9692%
Source Step = 94.9988%
Source Step = 95.0284%
Source Step = 95.058%
Source Step = 95.0876%
Source Step = 95.1172%
Source Step = 95.1468%
Source Step = 95.1764%
Source Step = 95.206%
Source Step = 95.2356%
Source Step = 95.2652%
Source Step = 95.2947%
Source Step = 95.3243%
Source Step = 95.3539%
Source Step = 95.3835%
Source Step = 95.4131%
Source Step = 95.4427%
Source Step = 95.4723%
Source Step = 95.5019%
Source Step = 95.5315%
Source Step = 95.5611%
Source Step = 95.5907%
Source Step = 95.6203%
Source Step = 95.6499%
Source Step = 95.6795%
Source Step = 95.709%
Source Step = 95.7386%
Source Step = 95.7682%
Source Step = 95.7978%
Source Step = 95.8274%
Source Step = 95.857%
Source Step = 95.8866%
Source Step = 95.9162%
Source Step = 95.9458%
Source Step = 95.9754%
Source Step = 96.005%
Source Step = 96.0346%
Source Step = 96.0642%
Source Step = 96.0937%
Source Step = 96.1233%
Source Step = 96.1529%
Source Step = 96.1825%
Source Step = 96.2121%
Source Step = 96.2417%
Source Step = 96.2713%
Source Step = 96.3009%
Source Step = 96.3305%
Source Step = 96.3601%
Source Step = 96.3897%
Source Step = 96.4193%
Source Step = 96.4489%
Source Step = 96.4785%
Source Step = 96.508%
Source Step = 96.5376%
Source Step = 96.5672%
Source Step = 96.5968%
Source Step = 96.6264%
Source Step = 96.656%
Source Step = 96.6856%
Source Step = 96.7152%
Source Step = 96.7448%
Source Step = 96.7744%
Source Step = 96.804%
Source Step = 96.8336%
Source Step = 96.8632%
Source Step = 96.8928%
Source Step = 96.9223%
Source Step = 96.9519%
Source Step = 96.9815%
Source Step = 97.0111%
Source Step = 97.0407%
Source Step = 97.0703%
Source Step = 97.0999%
Source Step = 97.1295%
Source Step = 97.1591%
Source Step = 97.1887%
Source Step = 97.2183%
Source Step = 97.2479%
Source Step = 97.2775%
Source Step = 97.3071%
Source Step = 97.3366%
Source Step = 97.3662%
Source Step = 97.3958%
Source Step = 97.4254%
Source Step = 97.455%
Source Step = 97.4846%
Source Step = 97.5142%
Source Step = 97.5438%
Source Step = 97.5734%
Source Step = 97.603%
Source Step = 97.6326%
Source Step = 97.6622%
Source Step = 97.6918%
Source Step = 97.7214%
Source Step = 97.7509%
Source Step = 97.7805%
Source Step = 97.8101%
Source Step = 97.8397%
Source Step = 97.8693%
Source Step = 97.8989%
Source Step = 97.9285%
Source Step = 97.9581%
Source Step = 97.9877%
Source Step = 98.0173%
Source Step = 98.0469%
Source Step = 98.0765%
Source Step = 98.1061%
Source Step = 98.1357%
Source Step = 98.1652%
Source Step = 98.1948%
Source Step = 98.2244%
Source Step = 98.254%
Source Step = 98.2836%
Source Step = 98.3132%
Source Step = 98.3428%
Source Step = 98.3724%
Source Step = 98.402%
Source Step = 98.4316%
Source Step = 98.4612%
Source Step = 98.4908%
Source Step = 98.5204%
Source Step = 98.55%
Source Step = 98.5795%
Source Step = 98.6091%
Source Step = 98.6387%
Source Step = 98.6683%
Source Step = 98.6979%
Source Step = 98.7275%
Source Step = 98.7571%
Source Step = 98.7867%
Source Step = 98.8163%
Source Step = 98.8459%
Source Step = 98.8755%
Source Step = 98.9051%
Source Step = 98.9347%
Source Step = 98.9643%
Source Step = 98.9938%
Source Step = 99.0234%
Source Step = 99.053%
Source Step = 99.0826%
Source Step = 99.1122%
Source Step = 99.1418%
Source Step = 99.1714%
Source Step = 99.201%
Source Step = 99.2306%
Source Step = 99.2602%
Source Step = 99.2898%
Source Step = 99.3194%
Source Step = 99.349%
Source Step = 99.3786%
Source Step = 99.4081%
Source Step = 99.4377%
Source Step = 99.4673%
Source Step = 99.4969%
Source Step = 99.5265%
Source Step = 99.5561%
Source Step = 99.5857%
Source Step = 99.6153%
Source Step = 99.6449%
Source Step = 99.6745%
Source Step = 99.7041%
Source Step = 99.7337%
Source Step = 99.7633%
Source Step = 99.7929%
Source Step = 99.8224%
Source Step = 99.852%
Source Step = 99.8816%
Source Step = 99.9112%
Source Step = 99.9408%
Source Step = 99.9704%
Source Step = 100%
Source Step = 100%
Source Step = 100%
Source Step = 100%
Source Step = 100%
Source Step = 100%
Source Step = 100%
Source Step = 100%
Source Step = 100%
Source Step = 100%
Source Step = 100%
Source Step = 100%
Source Step = 100%
Source Step = 100%
Source Step = 100%
Source Step = 100%
Source Step = 100%
Source Step = 100%
Source Step = 100%
Source Step = 100%
Source Step = 100%
Source Step = 100%
Source Step = 100%
Source Step = 100%
Source Step = 100%
Source Step = 100%
Source Step = 100%
Source Step = 100%
Source Step = 100%
Source Step = 100%
Source Step = 100%
Source Step = 100%
Source Step = 100%
Source Step = 100%
Source Step = 100%
Source Step = 100%
Source Step = 100%
Source Step = 100%
Source Step = 100%
Source Step = 100%
Source Step = 100%
Source Step = 100%
Source Step = 100%
Source Step = 100%
Source Step = 100%
Source Step = 100%
Source Step = 100%
Source Step = 100%
Source Step = 100%
Source Step = 100%
Source Step = 100%
Source Step = 100%
Source Step = 100%
Source Step = 100%
Source Step = 100%
Source Step = 100%
Source Step = 100%
Source Step = 100%
Source Step = 100%
Source Step = 100%
Source Step = 100%
Source Step = 100%
Source Step = 100%
Source stepping aborted.
Pseudo Transient failed in finding the operating point at 10.0237 탎.
Direct Newton iteration failed to find .op point.  (Use ".option noopiter" to skip.)
Starting Gmin stepping
Gmin = 10
Gmin = 1.07374
Gmin = 0.115292
Gmin = 0.0123794
Gmin = 0.00132923
Gmin = 0.000142725
Gmin = 1.5325e-005
Gmin = 1.6455e-006
Gmin = 1.76685e-007
Gmin = 1.89714e-008
Gmin = 2.03704e-009
Gmin = 2.18725e-010
Gmin = 2.34854e-011
Gmin = 2.52173e-012
vernier = 0.5
vernier = 0.25
Gmin = 1.01662e-012
vernier = 0.333333
vernier = 0.166667
vernier = 0.0833333
Gmin = 7.21027e-013
vernier = 0.0416667
vernier = 0.0208333
vernier = 0.0104167
Gmin = 0
Gmin stepping aborted per request.

Starting source stepping with srcstepmethod=0
Source Step = 3.0303%
Source Step = 33.3333%
Source Step = 63.6364%
Source Step = 93.9394%
vernier = 0.25
Source Step = 91.7377%
Source stepping aborted.
Starting source stepping with srcstepmethod=1
Source Step = 3.0303%
Source Step = 33.3333%
Source Step = 63.6364%
Source Step = 93.9394%
Source Step = 100%
Source Step = 99.1894%
vernier = 0.015625
Source Step = 99.0237%
Source Step = 99.0533%
Source Step = 99.0829%
Source Step = 99.1125%
Source Step = 99.142%
Source Step = 99.1716%
Source Step = 99.2012%
Source Step = 99.2308%
Source Step = 99.2604%
Source Step = 99.29%
Source Step = 99.3196%
Source Step = 99.3492%
Source Step = 99.3788%
Source Step = 99.4084%
Source Step = 99.438%
Source Step = 99.4676%
Source Step = 99.4972%
Source Step = 99.5268%
Source Step = 99.5563%
Source Step = 99.5859%
Source Step = 99.6155%
Source Step = 99.6451%
Source Step = 99.6747%
Source Step = 99.7043%
Source Step = 99.7339%
Source Step = 99.7635%
Source Step = 99.7931%
Source Step = 99.8227%
Source Step = 99.8523%
Source Step = 99.8819%
Source Step = 99.9115%
Source Step = 99.9411%
Source Step = 99.9706%
Source Step = 100%
Source Step = 100%
Source Step = 100%
Source Step = 100%
Source Step = 100%
Source Step = 100%
Source Step = 100%
Source Step = 100%
Source Step = 100%
Source Step = 100%
Source Step = 100%
Source Step = 100%
Source Step = 100%
Source Step = 100%
Source Step = 100%
Source Step = 100%
Source Step = 100%
Source Step = 100%
Source Step = 100%
Source Step = 100%
Source Step = 100%
Source Step = 100%
Source Step = 100%
Source Step = 100%
Source Step = 100%
Source Step = 100%
Source Step = 100%
Source Step = 100%
Source Step = 100%
Source Step = 100%
Source Step = 100%
Source Step = 100%
Source Step = 100%
Source Step = 100%
Source Step = 100%
Source Step = 100%
Source Step = 100%
Source Step = 100%
Source Step = 100%
Source Step = 100%
Source Step = 100%
Source stepping aborted.
Pseudo Transient failed in finding the operating point at 7.44051 탎.
Direct Newton iteration failed to find .op point.  (Use ".option noopiter" to skip.)
Starting Gmin stepping
Gmin = 10
Gmin = 1.07374
Gmin = 0.115292
Gmin = 0.0123794
Gmin = 0.00132923
Gmin = 0.000142725
Gmin = 1.5325e-005
Gmin = 1.6455e-006
Gmin = 1.76685e-007
Gmin = 1.89714e-008
Gmin = 2.03704e-009
Gmin = 2.18725e-010
Gmin = 2.34854e-011
Gmin = 2.52173e-012
vernier = 0.5
vernier = 0.25
vernier = 0.125
vernier = 0.0625
Gmin = 1.01701e-012
vernier = 0.03125
vernier = 0.0416667
vernier = 0.0208333
Gmin = 9.68112e-013
vernier = 0.0104167
vernier = 0.00520833
vernier = 0.00260417
vernier = 0.00130208
Gmin = 9.66224e-013
vernier = 0.000651042
vernier = 0.000488281
Gmin = 0
Gmin stepping failed

Starting source stepping with srcstepmethod=0
Source Step = 3.0303%
Source Step = 33.3333%
Source Step = 63.6364%
Source Step = 86.3636%
vernier = 0.0625
Source Step = 85.9848%
vernier = 0.000976563
Source Step = 86.0026%
Source Step = 86.0322%
Source Step = 86.0618%
Source Step = 86.0914%
Source Step = 86.121%
vernier = 0.00146484
Source Step = 86.1624%
Source Step = 86.2068%
Source Step = 86.2512%
Source Step = 86.2956%
Source Step = 86.34%
vernier = 0.00219727
Source Step = 86.3999%
Source Step = 86.4665%
Source Step = 86.5331%
Source Step = 86.5996%
Source Step = 86.6662%
vernier = 0.0032959
Source Step = 86.7528%
Source Step = 86.8527%
Source Step = 86.9525%
Source Step = 87.0524%
Source Step = 87.1523%
vernier = 0.00494385
Source Step = 87.2771%
Source Step = 87.4269%
Source Step = 87.5768%
Source Step = 87.7266%
Source Step = 87.8764%
vernier = 0.00741577
Source Step = 88.0562%
Source Step = 88.2809%
Source Step = 88.5056%
Source Step = 88.7303%
Source Step = 88.955%
vernier = 0.0111237
Source Step = 89.2135%
Source Step = 89.5506%
Source Step = 89.8876%
Source Step = 90.2247%
Source Step = 90.5618%
Source Step = 90.6629%
Source Step = 90.7472%
Source Step = 90.8315%
Source Step = 90.9157%
Source Step = 91%
Source Step = 91.0843%
Source Step = 91.1685%
Source Step = 91.2528%
Source Step = 91.3371%
Source Step = 91.4213%
Source Step = 91.5056%
Source Step = 91.5899%
Source Step = 91.6742%
Source Step = 91.7584%
Source Step = 91.8427%
Source Step = 91.927%
Source Step = 92.0112%
Source Step = 92.0955%
Source Step = 92.1798%
Source Step = 92.264%
Source Step = 92.3483%
Source Step = 92.4326%
Source Step = 92.5169%
Source Step = 92.6011%
Source Step = 92.6854%
Source Step = 92.7697%
Source Step = 92.8539%
Source stepping aborted.
Starting source stepping with srcstepmethod=1
Source Step = 3.0303%
Source Step = 33.3333%
Source Step = 63.6364%
Source Step = 75.3788%
vernier = 0.015625
Source Step = 75.3729%
Source Step = 75.4025%
Source Step = 75.4321%
Source Step = 75.4616%
Source Step = 75.4912%
Source Step = 75.5208%
vernier = 0.00146484
Source Step = 75.5652%
Source Step = 75.6096%
Source Step = 75.654%
Source Step = 75.6984%
Source Step = 75.7428%
vernier = 0.00219727
Source Step = 75.8071%
Source Step = 75.8737%
Source Step = 75.9403%
Source Step = 76.0069%
Source Step = 76.0735%
vernier = 0.0032959
Source Step = 76.1667%
Source Step = 76.2666%
Source Step = 76.3664%
Source Step = 76.4663%
Source Step = 76.5662%
vernier = 0.00494385
Source Step = 76.701%
Source Step = 76.8508%
Source Step = 77.0007%
Source Step = 77.1505%
Source Step = 77.3003%
vernier = 0.00741577
Source Step = 77.495%
Source Step = 77.7198%
Source Step = 77.9445%
Source Step = 78.1692%
Source Step = 78.3939%
vernier = 0.0111237
Source Step = 78.6748%
Source Step = 79.0119%
Source Step = 79.349%
Source Step = 79.6861%
Source Step = 80.0231%
vernier = 0.0166855
Source Step = 80.4276%
Source Step = 80.9333%
Source Step = 81.4389%
Source Step = 81.9445%
Source Step = 82.4501%
vernier = 0.0250282
Source Step = 83.0316%
Source Step = 83.79%
Source Step = 84.5485%
Source Step = 85.3069%
Source Step = 86.0653%
vernier = 0.0375423
Source Step = 86.8996%
Source Step = 88.0372%
Source Step = 89.1749%
Source Step = 90.3125%
Source Step = 90.4761%
Source Step = 90.5472%
Source Step = 90.6183%
Source Step = 90.6894%
Source Step = 90.7605%
Source Step = 90.8316%
Source Step = 90.9027%
Source Step = 90.9738%
Source Step = 91.0449%
Source Step = 91.116%
Source Step = 91.1871%
Source Step = 91.2582%
Source Step = 91.3293%
Source Step = 91.4004%
Source Step = 91.4715%
Source Step = 91.5426%
Source Step = 91.6137%
Source Step = 91.6848%
Source Step = 91.7559%
Source Step = 91.827%
Source Step = 91.8981%
Source Step = 91.9692%
Source Step = 92.0403%
Source Step = 92.1114%
Source Step = 92.1825%
Source Step = 92.2536%
Source Step = 92.3247%
Source Step = 92.3958%
Source Step = 92.4669%
Source Step = 92.5381%
Source Step = 92.6092%
Source Step = 92.6803%
Source Step = 92.7514%
Source Step = 92.8225%
Source Step = 92.8936%
Source Step = 92.9647%
Source Step = 93.0358%
Source Step = 93.1069%
Source Step = 93.178%
Source Step = 93.2491%
Source Step = 93.3202%
Source Step = 93.3913%
Source Step = 93.4624%
Source Step = 93.5335%
Source Step = 93.6046%
Source Step = 93.6757%
Source Step = 93.7468%
Source Step = 93.8179%
Source Step = 93.889%
Source Step = 93.9601%
Source Step = 94.0312%
Source Step = 94.1023%
Source Step = 94.1734%
Source Step = 94.2445%
Source Step = 94.3156%
Source Step = 94.3867%
Source Step = 94.4578%
Source Step = 94.5289%
Source Step = 94.6%
Source Step = 94.6711%
Source Step = 94.7422%
Source Step = 94.8133%
Source Step = 94.8844%
Source Step = 94.9556%
Source Step = 95.0267%
Source Step = 95.0978%
Source Step = 95.1689%
Source Step = 95.24%
Source Step = 95.3111%
Source Step = 95.3822%
Source Step = 95.4533%
Source Step = 95.5244%
Source Step = 95.5955%
Source Step = 95.6666%
Source Step = 95.7377%
Source Step = 95.8088%
Source Step = 95.8799%
Source Step = 95.951%
Source Step = 96.0221%
Source Step = 96.0932%
Source Step = 96.1643%
Source Step = 96.2354%
Source Step = 96.3065%
Source Step = 96.3776%
Source Step = 96.4487%
Source Step = 96.5198%
Source Step = 96.5909%
Source Step = 96.662%
Source Step = 96.7331%
Source Step = 96.8042%
Source Step = 96.8753%
Source Step = 96.9464%
Source Step = 97.0175%
Source Step = 97.0886%
Source Step = 97.1597%
Source Step = 97.2308%
Source Step = 97.3019%
Source Step = 97.3731%
Source Step = 97.4442%
Source Step = 97.5153%
Source Step = 97.5864%
Source Step = 97.6575%
Source Step = 97.7286%
Source Step = 97.7997%
Source Step = 97.8708%
Source Step = 97.9419%
Source Step = 98.013%
Source Step = 98.0841%
Source Step = 98.1552%
Source Step = 98.2263%
Source Step = 98.2974%
Source Step = 98.3685%
Source Step = 98.4396%
Source Step = 98.5107%
Source Step = 98.5818%
Source Step = 98.6529%
Source Step = 98.724%
Source Step = 98.7951%
Source Step = 98.8662%
Source Step = 98.9373%
Source Step = 99.0084%
Source Step = 99.0795%
Source Step = 99.1506%
Source Step = 99.2217%
Source Step = 99.2928%
Source Step = 99.3639%
Source Step = 99.435%
Source Step = 99.5061%
Source Step = 99.5772%
Source Step = 99.6483%
Source Step = 99.7194%
Source Step = 99.7905%
Source Step = 99.8617%
Source Step = 99.9328%
Source Step = 100%
Source Step = 100%
Source Step = 100%
Source Step = 100%
Source Step = 100%
Source Step = 100%
Source Step = 100%
Source Step = 100%
Source Step = 100%
Source Step = 100%
Source Step = 100%
Source Step = 100%
Source Step = 100%
Source Step = 100%
Source Step = 100%
Source Step = 100%
Source Step = 100%
Source Step = 100%
Source Step = 100%
Source Step = 100%
Source Step = 100%
Source Step = 100%
Source Step = 100%
Source Step = 100%
Source Step = 100%
Source Step = 100%
Source Step = 100%
Source Step = 100%
Source Step = 100%
Source Step = 100%
Source Step = 100%
Source Step = 100%
Source Step = 100%
Source Step = 100%
Source Step = 100%
Source Step = 100%
Source Step = 100%
Source Step = 100%
Source Step = 100%
Source Step = 100%
Source Step = 100%
Source Step = 100%
Source Step = 100%
Source Step = 100%
Source Step = 100%
Source Step = 100%
Source Step = 100%
Source Step = 100%
Source Step = 100%
Source Step = 100%
Source Step = 100%
Source Step = 100%
Source Step = 100%
Source Step = 100%
Source Step = 100%
Source Step = 100%
Source Step = 100%
Source Step = 100%
Source Step = 100%
Source Step = 100%
Source Step = 100%
Source Step = 100%
Source Step = 100%
Source Step = 100%
Source Step = 100%
Source Step = 100%
Source stepping aborted.
Pseudo Transient failed in finding the operating point at 10.2444 탎.
Direct Newton iteration failed to find .op point.  (Use ".option noopiter" to skip.)
Starting Gmin stepping
Gmin = 10
Gmin = 1.07374
Gmin = 0.115292
Gmin = 0.0123794
Gmin = 0.00132923
Gmin = 0.000142725
Gmin = 1.5325e-005
Gmin = 1.6455e-006
Gmin = 1.76685e-007
Gmin = 1.89714e-008
Gmin = 2.03704e-009
Gmin = 2.18725e-010
Gmin = 2.34854e-011
Gmin = 2.52173e-012
vernier = 0.5
vernier = 0.25
vernier = 0.125
Gmin = 1.3863e-012
vernier = 0.0625
vernier = 0.03125
Gmin = 1.29276e-012
vernier = 0.015625
vernier = 0.0078125
vernier = 0.00390625
Gmin = 1.27151e-012
vernier = 0.00195313
vernier = 0.000976563
vernier = 0.000488281
Gmin = 0
Gmin stepping failed

Starting source stepping with srcstepmethod=0
Source Step = 3.0303%
Source Step = 33.3333%
Source Step = 63.6364%
Source Step = 86.3636%
vernier = 0.0625
Source Step = 86.2127%
Source Step = 86.2423%
Source Step = 86.2719%
Source Step = 86.3015%
Source Step = 86.3311%
Source Step = 86.3607%
vernier = 0.00146484
Source Step = 86.4021%
Source Step = 86.4465%
Source Step = 86.4909%
Source Step = 86.5353%
Source Step = 86.5797%
vernier = 0.00219727
Source Step = 86.6396%
Source Step = 86.7062%
Source Step = 86.7728%
Source Step = 86.8393%
Source Step = 86.9059%
vernier = 0.0032959
Source Step = 86.9925%
Source Step = 87.0924%
Source Step = 87.1922%
Source Step = 87.2921%
Source Step = 87.392%
vernier = 0.00494385
Source Step = 87.5168%
Source Step = 87.6666%
Source Step = 87.8165%
Source Step = 87.9663%
Source Step = 88.1161%
vernier = 0.00741577
Source Step = 88.2959%
Source Step = 88.5206%
Source Step = 88.7453%
Source Step = 88.97%
Source Step = 89.1947%
vernier = 0.0111237
Source Step = 89.4532%
Source Step = 89.7903%
Source Step = 90.1273%
Source Step = 90.4644%
Source Step = 90.5908%
Source Step = 90.6751%
Source Step = 90.7594%
Source Step = 90.8436%
Source Step = 90.9279%
Source Step = 91.0122%
Source Step = 91.0964%
Source Step = 91.1807%
Source Step = 91.265%
Source Step = 91.3492%
Source Step = 91.4335%
Source Step = 91.5178%
Source Step = 91.6021%
Source Step = 91.6863%
Source Step = 91.7706%
Source Step = 91.8549%
Source Step = 91.9391%
Source stepping aborted.
Starting source stepping with srcstepmethod=1
Source Step = 3.0303%
Source Step = 33.3333%
Source Step = 63.6364%
Source Step = 80.4924%
vernier = 0.015625
Source Step = 80.38%
Source Step = 80.4096%
Source Step = 80.4392%
Source Step = 80.4687%
Source Step = 80.4983%
vernier = 0.00146484
Source Step = 80.5324%
Source Step = 80.5768%
Source Step = 80.6212%
Source Step = 80.6655%
Source Step = 80.7099%
vernier = 0.00219727
Source Step = 80.7588%
Source Step = 80.8253%
Source Step = 80.8919%
Source Step = 80.9585%
Source Step = 81.0251%
vernier = 0.0032959
Source Step = 81.095%
Source Step = 81.1949%
Source Step = 81.2948%
Source Step = 81.3946%
Source Step = 81.4945%
Source Step = 81.5944%
vernier = 0.00494385
Source Step = 81.7442%
Source Step = 81.8566%
Source Step = 81.894%
Source Step = 81.9315%
Source Step = 81.9689%
Source Step = 82.0064%
Source Step = 82.0438%
vernier = 0.00185394
Source Step = 82.0963%
Source Step = 82.1524%
Source Step = 82.2086%
Source Step = 82.2648%
Source Step = 82.321%
vernier = 0.00278091
Source Step = 82.3968%
Source Step = 82.4811%
Source Step = 82.5654%
Source Step = 82.6496%
Source Step = 82.7339%
vernier = 0.00417137
Source Step = 82.8435%
Source Step = 82.9699%
Source Step = 83.0963%
Source Step = 83.2227%
Source Step = 83.3491%
vernier = 0.00625706
Source Step = 83.5071%
Source Step = 83.6967%
Source Step = 83.8863%
Source Step = 84.0759%
Source Step = 84.2655%
vernier = 0.00938559
Source Step = 84.493%
Source Step = 84.7775%
Source Step = 85.0619%
Source Step = 85.3463%
Source Step = 85.6307%
vernier = 0.0140784
Source Step = 85.9578%
Source Step = 86.3844%
Source Step = 86.811%
Source Step = 87.2376%
Source Step = 87.6642%
vernier = 0.0211176
Source Step = 88.1335%
Source Step = 88.7734%
Source Step = 89.4134%
Source Step = 90.0533%
Source Step = 90.5332%
vernier = 0.00131985
Source Step = 90.5572%
Source Step = 90.5972%
Source Step = 90.6372%
Source Step = 90.6772%
Source Step = 90.7172%
Source Step = 90.7572%
Source Step = 90.7972%
Source Step = 90.8372%
Source Step = 90.8772%
Source Step = 90.9172%
Source Step = 90.9572%
Source Step = 90.9972%
Source Step = 91.0372%
Source Step = 91.0772%
Source Step = 91.1172%
Source Step = 91.1572%
Source Step = 91.1972%
Source Step = 91.2372%
Source Step = 91.2772%
Source Step = 91.3171%
Source Step = 91.3571%
Source Step = 91.3971%
Source Step = 91.4371%
Source Step = 91.4771%
Source Step = 91.5171%
Source Step = 91.5571%
Source Step = 91.5971%
Source Step = 91.6371%
Source Step = 91.6771%
Source Step = 91.7171%
Source Step = 91.7571%
Source Step = 91.7971%
Source Step = 91.8371%
Source Step = 91.8771%
Source Step = 91.9171%
Source Step = 91.9571%
Source Step = 91.9971%
Source Step = 92.0371%
Source Step = 92.0771%
Source Step = 92.1171%
Source Step = 92.1571%
Source Step = 92.197%
Source Step = 92.237%
Source Step = 92.277%
Source Step = 92.317%
Source Step = 92.357%
Source Step = 92.397%
Source Step = 92.437%
Source Step = 92.477%
Source Step = 92.517%
Source Step = 92.557%
Source Step = 92.597%
Source Step = 92.637%
Source Step = 92.677%
Source Step = 92.717%
Source Step = 92.757%
Source Step = 92.797%
Source Step = 92.837%
Source Step = 92.877%
Source Step = 92.917%
Source Step = 92.957%
Source Step = 92.997%
Source Step = 93.0369%
Source Step = 93.0769%
Source Step = 93.1169%
Source Step = 93.1569%
Source Step = 93.1969%
Source Step = 93.2369%
Source Step = 93.2769%
Source Step = 93.3169%
Source Step = 93.3569%
Source Step = 93.3969%
Source Step = 93.4369%
Source Step = 93.4769%
Source Step = 93.5169%
Source Step = 93.5569%
Source Step = 93.5969%
Source Step = 93.6369%
Source Step = 93.6769%
Source Step = 93.7169%
Source Step = 93.7569%
Source Step = 93.7969%
Source Step = 93.8369%
Source Step = 93.8769%
Source Step = 93.9168%
Source Step = 93.9568%
Source Step = 93.9968%
Source Step = 94.0368%
Source Step = 94.0768%
Source Step = 94.1168%
Source Step = 94.1568%
Source Step = 94.1968%
Source Step = 94.2368%
Source Step = 94.2768%
Source Step = 94.3168%
Source Step = 94.3568%
Source Step = 94.3968%
Source Step = 94.4368%
Source Step = 94.4768%
Source Step = 94.5168%
Source Step = 94.5568%
Source Step = 94.5968%
Source Step = 94.6368%
Source Step = 94.6768%
Source Step = 94.7168%
Source Step = 94.7568%
Source Step = 94.7967%
Source Step = 94.8367%
Source Step = 94.8767%
Source Step = 94.9167%
Source Step = 94.9567%
Source Step = 94.9967%
Source Step = 95.0367%
Source Step = 95.0767%
Source Step = 95.1167%
Source Step = 95.1567%
Source Step = 95.1967%
Source Step = 95.2367%
Source Step = 95.2767%
Source Step = 95.3167%
Source Step = 95.3567%
Source Step = 95.3967%
Source Step = 95.4367%
Source Step = 95.4767%
Source Step = 95.5167%
Source Step = 95.5567%
Source Step = 95.5967%
Source Step = 95.6367%
Source Step = 95.6766%
Source Step = 95.7166%
Source Step = 95.7566%
Source Step = 95.7966%
Source Step = 95.8366%
Source Step = 95.8766%
Source Step = 95.9166%
Source Step = 95.9566%
Source Step = 95.9966%
Source Step = 96.0366%
Source Step = 96.0766%
Source Step = 96.1166%
Source Step = 96.1566%
Source Step = 96.1966%
Source Step = 96.2366%
Source Step = 96.2766%
Source Step = 96.3166%
Source Step = 96.3566%
Source Step = 96.3966%
Source Step = 96.4366%
Source Step = 96.4766%
Source Step = 96.5165%
Source Step = 96.5565%
Source Step = 96.5965%
Source Step = 96.6365%
Source Step = 96.6765%
Source Step = 96.7165%
Source Step = 96.7565%
Source Step = 96.7965%
Source Step = 96.8365%
Source Step = 96.8765%
Source Step = 96.9165%
Source Step = 96.9565%
Source Step = 96.9965%
Source Step = 97.0365%
Source Step = 97.0765%
Source Step = 97.1165%
Source Step = 97.1565%
Source Step = 97.1965%
Source Step = 97.2365%
Source Step = 97.2765%
Source Step = 97.3165%
Source Step = 97.3565%
Source Step = 97.3964%
Source Step = 97.4364%
Source Step = 97.4764%
Source Step = 97.5164%
Source Step = 97.5564%
Source Step = 97.5964%
Source Step = 97.6364%
Source Step = 97.6764%
Source Step = 97.7164%
Source Step = 97.7564%
Source Step = 97.7964%
Source Step = 97.8364%
Source Step = 97.8764%
Source Step = 97.9164%
Source Step = 97.9564%
Source Step = 97.9964%
Source Step = 98.0364%
Source Step = 98.0764%
Source Step = 98.1164%
Source Step = 98.1564%
Source Step = 98.1964%
Source Step = 98.2364%
Source Step = 98.2763%
Source Step = 98.3163%
Source Step = 98.3563%
Source Step = 98.3963%
Source Step = 98.4363%
Source Step = 98.4763%
Source Step = 98.5163%
Source Step = 98.5563%
Source Step = 98.5963%
Source Step = 98.6363%
Source Step = 98.6763%
Source Step = 98.7163%
Source Step = 98.7563%
Source Step = 98.7963%
Source Step = 98.8363%
Source Step = 98.8763%
Source Step = 98.9163%
Source Step = 98.9563%
Source Step = 98.9963%
Source Step = 99.0363%
Source Step = 99.0763%
Source Step = 99.1162%
Source Step = 99.1562%
Source Step = 99.1962%
Source Step = 99.2362%
Source Step = 99.2762%
Source Step = 99.3162%
Source Step = 99.3562%
Source Step = 99.3962%
Source Step = 99.4362%
Source Step = 99.4762%
Source Step = 99.5162%
Source Step = 99.5562%
Source Step = 99.5962%
Source Step = 99.6362%
Source Step = 99.6762%
Source Step = 99.7162%
Source Step = 99.7562%
Source Step = 99.7962%
Source Step = 99.8362%
Source Step = 99.8762%
Source Step = 99.9162%
Source Step = 99.9562%
Source Step = 99.9961%
Source Step = 100%
Source Step = 100%
Source Step = 100%
Source Step = 100%
Source Step = 100%
Source Step = 100%
Source Step = 100%
Source Step = 100%
Source Step = 100%
Source Step = 100%
Source Step = 100%
Source Step = 100%
Source Step = 100%
Source Step = 100%
Source Step = 100%
Source Step = 100%
Source Step = 100%
Source Step = 100%
Source Step = 100%
Source Step = 100%
Source Step = 100%
Source Step = 100%
Source Step = 100%
Source Step = 100%
Source Step = 100%
Source Step = 100%
Source Step = 100%
Source Step = 100%
Source Step = 100%
Source Step = 100%
Source Step = 100%
Source Step = 100%
Source Step = 100%
Source Step = 100%
Source Step = 100%
Source Step = 100%
Source Step = 100%
Source Step = 100%
Source Step = 100%
Source Step = 100%
Source Step = 100%
Source Step = 100%
Source Step = 100%
Source Step = 100%
Source Step = 100%
Source Step = 100%
Source Step = 100%
Source Step = 100%
Source Step = 100%
Source Step = 100%
Source stepping aborted.
Pseudo Transient failed in finding the operating point at 10.1896 탎.
Direct Newton iteration failed to find .op point.  (Use ".option noopiter" to skip.)
Starting Gmin stepping
Gmin = 10
Gmin = 1.07374
Gmin = 0.115292
Gmin = 0.0123794
Gmin = 0.00132923
Gmin = 0.000142725
Gmin = 1.5325e-005
Gmin = 1.6455e-006
Gmin = 1.76685e-007
Gmin = 1.89714e-008
Gmin = 2.03704e-009
Gmin = 2.18725e-010
Gmin = 2.34854e-011
vernier = 0.5
Gmin = 5.40494e-012
vernier = 0.666667
vernier = 0.888888
vernier = 0.444444
Gmin = 1.69358e-012
vernier = 0.222222
vernier = 0.111111
Gmin = 1.07813e-012
vernier = 0.0555555
vernier = 0.0277778
vernier = 0.0138889
vernier = 0.00694444
vernier = 0.00347222
vernier = 0.00173611
Gmin = 1.0744e-012
vernier = 0.00231481
vernier = 0.00115741
vernier = 0.000578703
vernier = 0.000434027
Gmin = 0
Gmin = 0
Gmin stepping failed

Starting source stepping with srcstepmethod=0
Source Step = 3.0303%
Source Step = 33.3333%
Source Step = 63.6364%
Source Step = 77.6515%
vernier = 0.015625
Source Step = 77.619%
Source Step = 77.6486%
Source Step = 77.6781%
Source Step = 77.7077%
Source Step = 77.7373%
vernier = 0.00146484
Source Step = 77.7699%
Source Step = 77.8143%
Source Step = 77.8587%
Source Step = 77.9031%
Source Step = 77.9474%
vernier = 0.00219727
Source Step = 77.9941%
Source Step = 78.0606%
Source Step = 78.1272%
Source Step = 78.1938%
Source Step = 78.2604%
Source Step = 78.327%
vernier = 0.0032959
Source Step = 78.4268%
Source Step = 78.5267%
Source Step = 78.6266%
Source Step = 78.7265%
Source Step = 78.8263%
vernier = 0.00494385
Source Step = 78.9712%
Source Step = 79.121%
Source Step = 79.2708%
Source Step = 79.4206%
Source Step = 79.5704%
vernier = 0.00741577
Source Step = 79.7802%
Source Step = 80.0049%
Source Step = 80.2296%
Source Step = 80.4543%
Source Step = 80.679%
vernier = 0.0111237
Source Step = 80.9824%
Source Step = 81.3195%
Source Step = 81.6566%
Source Step = 81.9937%
Source Step = 82.3307%
vernier = 0.0166855
Source Step = 82.7689%
Source Step = 83.2746%
Source Step = 83.7802%
Source Step = 84.2858%
Source Step = 84.7914%
vernier = 0.0250282
Source Step = 85.4235%
Source Step = 86.1819%
Source Step = 86.9403%
Source Step = 87.6987%
Source Step = 88.4572%
vernier = 0.0375423
Source Step = 89.3673%
Source Step = 90.5049%
Source Step = 91.6426%
Source Step = 91.8275%
Source Step = 91.8986%
Source Step = 91.9697%
Source Step = 92.0408%
Source Step = 92.1119%
Source Step = 92.183%
Source Step = 92.2541%
Source Step = 92.3252%
Source Step = 92.3963%
Source Step = 92.4674%
Source Step = 92.5385%
Source Step = 92.6096%
Source Step = 92.6807%
Source Step = 92.7518%
Source Step = 92.8229%
Source Step = 92.894%
Source Step = 92.9651%
Source Step = 93.0362%
Source Step = 93.1073%
Source Step = 93.1784%
Source Step = 93.2495%
Source Step = 93.3206%
Source Step = 93.3917%
Source Step = 93.4628%
Source Step = 93.5339%
Source Step = 93.605%
Source Step = 93.6761%
Source Step = 93.7472%
Source Step = 93.8183%
Source Step = 93.8894%
Source stepping aborted.
Starting source stepping with srcstepmethod=1
Source Step = 3.0303%
Source Step = 33.3333%
Source Step = 63.6364%
Source Step = 93.9394%
Source Step = 94.8952%
Source Step = 94.9248%
Source Step = 94.9544%
Source Step = 94.984%
Source Step = 95.0136%
Source Step = 95.0432%
Source Step = 95.0728%
Source Step = 95.1024%
Source Step = 95.132%
Source Step = 95.1616%
Source Step = 95.1912%
Source Step = 95.2208%
Source Step = 95.2504%
Source Step = 95.2799%
Source Step = 95.3095%
Source Step = 95.3391%
Source Step = 95.3687%
Source Step = 95.3983%
Source Step = 95.4279%
Source Step = 95.4575%
Source Step = 95.4871%
Source Step = 95.5167%
Source Step = 95.5463%
Source Step = 95.5759%
Source Step = 95.6055%
Source Step = 95.6351%
Source Step = 95.6647%
Source Step = 95.6942%
Source Step = 95.7238%
Source Step = 95.7534%
Source Step = 95.783%
Source Step = 95.8126%
Source Step = 95.8422%
Source Step = 95.8718%
Source Step = 95.9014%
Source Step = 95.931%
Source Step = 95.9606%
Source Step = 95.9902%
Source Step = 96.0198%
Source Step = 96.0494%
Source Step = 96.079%
Source Step = 96.1085%
Source Step = 96.1381%
Source Step = 96.1677%
Source Step = 96.1973%
Source Step = 96.2269%
Source Step = 96.2565%
Source Step = 96.2861%
Source Step = 96.3157%
Source Step = 96.3453%
Source Step = 96.3749%
Source Step = 96.4045%
Source Step = 96.4341%
Source Step = 96.4637%
Source Step = 96.4933%
Source Step = 96.5228%
Source Step = 96.5524%
Source Step = 96.582%
Source Step = 96.6116%
Source Step = 96.6412%
Source Step = 96.6708%
Source Step = 96.7004%
Source Step = 96.73%
Source Step = 96.7596%
Source Step = 96.7892%
Source Step = 96.8188%
Source Step = 96.8484%
Source Step = 96.878%
Source Step = 96.9076%
Source Step = 96.9371%
Source Step = 96.9667%
Source Step = 96.9963%
Source Step = 97.0259%
Source Step = 97.0555%
Source Step = 97.0851%
Source Step = 97.1147%
Source Step = 97.1443%
Source Step = 97.1739%
Source Step = 97.2035%
Source Step = 97.2331%
Source Step = 97.2627%
Source Step = 97.2923%
Source Step = 97.3219%
Source Step = 97.3514%
Source Step = 97.381%
Source Step = 97.4106%
Source Step = 97.4402%
Source Step = 97.4698%
Source Step = 97.4994%
Source Step = 97.529%
Source Step = 97.5586%
Source Step = 97.5882%
Source Step = 97.6178%
Source Step = 97.6474%
Source Step = 97.677%
Source Step = 97.7066%
Source Step = 97.7362%
Source Step = 97.7657%
Source Step = 97.7953%
Source Step = 97.8249%
Source Step = 97.8545%
Source Step = 97.8841%
Source Step = 97.9137%
Source Step = 97.9433%
Source Step = 97.9729%
Source Step = 98.0025%
Source Step = 98.0321%
Source Step = 98.0617%
Source Step = 98.0913%
Source Step = 98.1209%
Source Step = 98.1504%
Source Step = 98.18%
Source Step = 98.2096%
Source Step = 98.2392%
Source Step = 98.2688%
Source Step = 98.2984%
Source Step = 98.328%
Source Step = 98.3576%
Source Step = 98.3872%
Source Step = 98.4168%
Source Step = 98.4464%
Source Step = 98.476%
Source Step = 98.5056%
Source Step = 98.5352%
Source Step = 98.5647%
Source Step = 98.5943%
Source Step = 98.6239%
Source Step = 98.6535%
Source Step = 98.6831%
Source Step = 98.7127%
Source Step = 98.7423%
Source Step = 98.7719%
Source Step = 98.8015%
Source Step = 98.8311%
Source Step = 98.8607%
Source Step = 98.8903%
Source Step = 98.9199%
Source Step = 98.9495%
Source Step = 98.979%
Source Step = 99.0086%
Source Step = 99.0382%
Source Step = 99.0678%
Source Step = 99.0974%
Source Step = 99.127%
Source Step = 99.1566%
Source Step = 99.1862%
Source Step = 99.2158%
Source Step = 99.2454%
Source Step = 99.275%
Source Step = 99.3046%
Source Step = 99.3342%
Source Step = 99.3638%
Source Step = 99.3933%
Source Step = 99.4229%
Source Step = 99.4525%
Source Step = 99.4821%
Source Step = 99.5117%
Source Step = 99.5413%
Source Step = 99.5709%
Source Step = 99.6005%
Source Step = 99.6301%
Source Step = 99.6597%
Source Step = 99.6893%
Source Step = 99.7189%
Source Step = 99.7485%
Source Step = 99.7781%
Source Step = 99.8076%
Source Step = 99.8372%
Source Step = 99.8668%
Source Step = 99.8964%
Source Step = 99.926%
Source Step = 99.9556%
Source Step = 99.9852%
Source Step = 100%
Source Step = 100%
Source Step = 100%
Source Step = 100%
Source Step = 100%
Source Step = 100%
Source Step = 100%
Source Step = 100%
Source Step = 100%
Source Step = 100%
Source Step = 100%
Source Step = 100%
Source Step = 100%
Source Step = 100%
Source Step = 100%
Source Step = 100%
Source Step = 100%
Source Step = 100%
Source Step = 100%
Source Step = 100%
Source Step = 100%
Source Step = 100%
Source Step = 100%
Source Step = 100%
Source Step = 100%
Source Step = 100%
Source Step = 100%
Source Step = 100%
Source Step = 100%
Source Step = 100%
Source Step = 100%
Source Step = 100%
Source Step = 100%
Source Step = 100%
Source Step = 100%
Source Step = 100%
Source Step = 100%
Source Step = 100%
Source Step = 100%
Source Step = 100%
Source Step = 100%
Source Step = 100%
Source Step = 100%
Source Step = 100%
Source Step = 100%
Source Step = 100%
Source Step = 100%
Source Step = 100%
Source Step = 100%
Source Step = 100%
Source Step = 100%
Source Step = 100%
Source Step = 100%
Source Step = 100%
Source Step = 100%
Source Step = 100%
Source Step = 100%
Source Step = 100%
Source Step = 100%
Source Step = 100%
Source Step = 100%
Source Step = 100%
Source Step = 100%
Source Step = 100%
Source Step = 100%
Source Step = 100%
Source Step = 100%
Source Step = 100%
Source Step = 100%
Source Step = 100%
Source Step = 100%
Source Step = 100%
Source Step = 100%
Source Step = 100%
Source Step = 100%
Source Step = 100%
Source Step = 100%
Source Step = 100%
Source Step = 100%
Source Step = 100%
Source Step = 100%
Source Step = 100%
Source Step = 100%
Source Step = 100%
Source Step = 100%
Source Step = 100%
Source Step = 100%
Source Step = 100%
Source Step = 100%
Source Step = 100%
Source Step = 100%
Source stepping aborted.
Pseudo Transient failed in finding the operating point at 5.05602 탎.
Direct Newton iteration failed to find .op point.  (Use ".option noopiter" to skip.)
Starting Gmin stepping
Gmin = 10
Gmin = 1.07374
Gmin = 0.115292
Gmin = 0.0123794
Gmin = 0.00132923
Gmin = 0.000142725
Gmin = 1.5325e-005
Gmin = 1.6455e-006
Gmin = 1.76685e-007
Gmin = 1.89714e-008
Gmin = 2.03704e-009
Gmin = 2.18725e-010
Gmin = 2.34854e-011
Gmin = 2.52173e-012
vernier = 0.5
vernier = 0.25
Gmin = 1.01662e-012
vernier = 0.125
vernier = 0.0625
vernier = 0.03125
vernier = 0.015625
Gmin = 9.70645e-013
vernier = 0.0078125
vernier = 0.00390625
vernier = 0.00195313
Gmin = 9.6592e-013
vernier = 0.000976563
vernier = 0.000488281
Gmin = 0
Gmin stepping failed

Starting source stepping with srcstepmethod=0
Source Step = 3.0303%
Source Step = 33.3333%
Source Step = 63.6364%
Source Step = 78.7997%
vernier = 0.000976563
Source Step = 78.8175%
Source Step = 78.8471%
Source Step = 78.8767%
Source Step = 78.9062%
Source Step = 78.9358%
vernier = 0.00146484
Source Step = 78.9773%
Source Step = 79.0217%
Source Step = 79.0661%
Source Step = 79.1104%
Source Step = 79.1548%
vernier = 0.00219727
Source Step = 79.2148%
Source Step = 79.2813%
Source Step = 79.3479%
Source Step = 79.4145%
Source Step = 79.4811%
vernier = 0.0032959
Source Step = 79.5676%
Source Step = 79.6675%
Source Step = 79.7674%
Source Step = 79.8673%
Source Step = 79.9672%
vernier = 0.00494385
Source Step = 80.092%
Source Step = 80.2418%
Source Step = 80.3916%
Source Step = 80.5414%
Source Step = 80.6913%
vernier = 0.00741577
Source Step = 80.871%
Source Step = 81.0957%
Source Step = 81.3205%
Source Step = 81.5452%
Source Step = 81.7699%
vernier = 0.0111237
Source Step = 82.0283%
Source Step = 82.3654%
Source Step = 82.7025%
Source Step = 83.0396%
Source Step = 83.3767%
vernier = 0.0166855
Source Step = 83.7474%
Source Step = 84.2531%
Source Step = 84.7587%
Source Step = 85.2643%
Source Step = 85.7699%
vernier = 0.0250282
Source Step = 86.3008%
Source Step = 87.0593%
Source Step = 87.8177%
Source Step = 88.5761%
Source Step = 89.3346%
Source Step = 90.093%
vernier = 0.0375423
Source stepping aborted.
Starting source stepping with srcstepmethod=1
Source Step = 3.0303%
Source Step = 33.3333%
Source Step = 63.6364%
Source Step = 93.9394%
Source Step = 100%
Source Step = 99.0059%
Source Step = 99.0355%
Source Step = 99.0651%
Source Step = 99.0947%
Source Step = 99.1243%
Source Step = 99.1539%
Source Step = 99.1835%
Source Step = 99.2131%
Source Step = 99.2427%
Source Step = 99.2723%
Source Step = 99.3018%
Source Step = 99.3314%
Source Step = 99.361%
Source Step = 99.3906%
Source Step = 99.4202%
Source Step = 99.4498%
Source Step = 99.4794%
Source Step = 99.509%
Source Step = 99.5386%
Source Step = 99.5682%
Source Step = 99.5978%
Source Step = 99.6274%
Source Step = 99.657%
Source Step = 99.6866%
Source Step = 99.7161%
Source Step = 99.7457%
Source Step = 99.7753%
Source Step = 99.8049%
Source Step = 99.8345%
Source Step = 99.8641%
Source Step = 99.8937%
Source Step = 99.9233%
Source Step = 99.9529%
Source Step = 99.9825%
Source Step = 100%
Source Step = 100%
Source Step = 100%
Source Step = 100%
Source Step = 100%
Source Step = 100%
Source Step = 100%
Source Step = 100%
Source Step = 100%
Source Step = 100%
Source Step = 100%
Source Step = 100%
Source Step = 100%
Source Step = 100%
Source Step = 100%
Source Step = 100%
Source Step = 100%
Source Step = 100%
Source Step = 100%
Source Step = 100%
Source Step = 100%
Source Step = 100%
Source Step = 100%
Source Step = 100%
Source Step = 100%
Source Step = 100%
Source Step = 100%
Source Step = 100%
Source Step = 100%
Source Step = 100%
Source Step = 100%
Source Step = 100%
Source Step = 100%
Source Step = 100%
Source Step = 100%
Source Step = 100%
Source Step = 100%
Source Step = 100%
Source Step = 100%
Source Step = 100%
Source Step = 100%
Source Step = 100%
Source Step = 100%
Source Step = 100%
Source Step = 100%
Source Step = 100%
Source Step = 100%
Source Step = 100%
Source Step = 100%
Source Step = 100%
Source Step = 100%
Source Step = 100%
Source Step = 100%
Source Step = 100%
Source Step = 100%
Source Step = 100%
Source Step = 100%
Source Step = 100%
Source Step = 100%
Source Step = 100%
Source Step = 100%
Source Step = 100%
Source Step = 100%
Source Step = 100%
Source Step = 100%
Source Step = 100%
Source Step = 100%
Source Step = 100%
Source Step = 100%
Source Step = 100%
Source Step = 100%
Source Step = 100%
Source Step = 100%
Source Step = 100%
Source Step = 100%
Source Step = 100%
Source Step = 100%
Source Step = 100%
Source Step = 100%
Source Step = 100%
Source Step = 100%
Source Step = 100%
Source Step = 100%
Source Step = 100%
Source Step = 100%
Source Step = 100%
Source Step = 100%
Source Step = 100%
Source Step = 100%
Source Step = 100%
Source Step = 100%
Source Step = 100%
Source Step = 100%
Source Step = 100%
Source Step = 100%
Source Step = 100%
Source Step = 100%
Source Step = 100%
Source Step = 100%
Source Step = 100%
Source Step = 100%
Source Step = 100%
Source Step = 100%
Source Step = 100%
Source Step = 100%
Source Step = 100%
Source Step = 100%
Source Step = 100%
Source Step = 100%
Source Step = 100%
Source Step = 100%
Source Step = 100%
Source Step = 100%
Source Step = 100%
Source Step = 100%
Source Step = 100%
Source Step = 100%
Source Step = 100%
Source Step = 100%
Source Step = 100%
Source Step = 100%
Source Step = 100%
Source Step = 100%
Source Step = 100%
Source Step = 100%
Source Step = 100%
Source Step = 100%
Source Step = 100%
Source Step = 100%
Source Step = 100%
Source Step = 100%
Source Step = 100%
Source Step = 100%
Source Step = 100%
Source Step = 100%
Source Step = 100%
Source Step = 100%
Source Step = 100%
Source Step = 100%
Source Step = 100%
Source Step = 100%
Source Step = 100%
Source Step = 100%
Source Step = 100%
Source Step = 100%
Source Step = 100%
Source Step = 100%
Source Step = 100%
Source Step = 100%
Source Step = 100%
Source Step = 100%
Source Step = 100%
Source Step = 100%
Source Step = 100%
Source Step = 100%
Source Step = 100%
Source Step = 100%
Source Step = 100%
Source Step = 100%
Source Step = 100%
Source Step = 100%
Source Step = 100%
Source Step = 100%
Source Step = 100%
Source Step = 100%
Source Step = 100%
Source Step = 100%
Source Step = 100%
Source Step = 100%
Source Step = 100%
Source Step = 100%
Source Step = 100%
Source Step = 100%
Source Step = 100%
Source Step = 100%
Source Step = 100%
Source Step = 100%
Source Step = 100%
Source Step = 100%
Source Step = 100%
Source Step = 100%
Source Step = 100%
Source Step = 100%
Source Step = 100%
Source Step = 100%
Source Step = 100%
Source Step = 100%
Source Step = 100%
Source Step = 100%
Source Step = 100%
Source Step = 100%
Source Step = 100%
Source Step = 100%
Source Step = 100%
Source Step = 100%
Source Step = 100%
Source Step = 100%
Source Step = 100%
Source Step = 100%
Source Step = 100%
Source Step = 100%
Source Step = 100%
Source Step = 100%
Source Step = 100%
Source Step = 100%
Source Step = 100%
Source Step = 100%
Source Step = 100%
Source Step = 100%
Source Step = 100%
Source Step = 100%
Source Step = 100%
Source Step = 100%
Source Step = 100%
Source Step = 100%
Source Step = 100%
Source Step = 100%
Source Step = 100%
Source Step = 100%
Source Step = 100%
Source Step = 100%
Source Step = 100%
Source Step = 100%
Source Step = 100%
Source Step = 100%
Source Step = 100%
Source Step = 100%
Source Step = 100%
Source Step = 100%
Source Step = 100%
Source Step = 100%
Source Step = 100%
Source Step = 100%
Source Step = 100%
Source Step = 100%
Source Step = 100%
Source Step = 100%
Source Step = 100%
Source Step = 100%
Source Step = 100%
Source Step = 100%
Source Step = 100%
Source Step = 100%
Source Step = 100%
Source Step = 100%
Source Step = 100%
Source Step = 100%
Source Step = 100%
Source Step = 100%
Source Step = 100%
Source Step = 100%
Source Step = 100%
Source Step = 100%
Source Step = 100%
Source Step = 100%
Source Step = 100%
Source Step = 100%
[...]
Source Step = 98.1575%
Source Step = 98.1975%
Source Step = 98.2375%
Source Step = 98.2775%
Source Step = 98.3175%
Source Step = 98.3575%
Source Step = 98.3975%
Source Step = 98.4375%
Source Step = 98.4775%
Source Step = 98.5175%
Source Step = 98.5575%
Source Step = 98.5975%
Source stepping aborted.
Pseudo Transient failed in finding the operating point at 5.12695 탎.
Direct Newton iteration failed to find .op point.  (Use ".option noopiter" to skip.)
Starting Gmin stepping
Gmin = 10
Gmin = 1.07374
Gmin = 0.115292
Gmin = 0.0123794
Gmin = 0.00132923
Gmin = 0.000142725
Gmin = 1.5325e-005
Gmin = 1.6455e-006
Gmin = 1.76685e-007
Gmin = 1.89714e-008
Gmin = 2.03704e-009
Gmin = 2.18725e-010
Gmin = 2.34854e-011
Gmin = 2.52173e-012
vernier = 0.5
vernier = 0.25
vernier = 0.125
vernier = 0.0625
Gmin = 1.58908e-012
vernier = 0.03125
vernier = 0.015625
vernier = 0.0078125
vernier = 0.00390625
Gmin = 1.58289e-012
vernier = 0.00195313
vernier = 0.000976563
vernier = 0.000488281
Gmin = 0
Gmin = 0
Gmin stepping failed

Starting source stepping with srcstepmethod=0
Source Step = 3.0303%
Source Step = 33.3333%
Source Step = 56.0606%
Source Step = 57.5758%
vernier = 0.00390625
Source Step = 57.5817%
Source Step = 57.6113%
Source Step = 57.6409%
Source Step = 57.6705%
Source Step = 57.7%
vernier = 0.00146484
Source Step = 57.7311%
Source Step = 57.7755%
Source Step = 57.8199%
Source Step = 57.8643%
Source Step = 57.9087%
Source Step = 57.9531%
vernier = 0.00219727
Source Step = 58.0196%
Source Step = 58.0862%
Source Step = 58.1528%
Source Step = 58.2194%
Source Step = 58.286%
vernier = 0.0032959
Source Step = 58.3825%
Source Step = 58.4824%
Source Step = 58.5823%
Source Step = 58.6822%
Source Step = 58.782%
vernier = 0.00494385
Source Step = 58.9219%
Source Step = 59.0717%
Source Step = 59.2215%
Source Step = 59.3713%
Source Step = 59.5211%
vernier = 0.00741577
Source Step = 59.7234%
Source Step = 59.9481%
Source Step = 60.1728%
Source Step = 60.3975%
Source Step = 60.6222%
vernier = 0.0111237
Source Step = 60.9144%
Source Step = 61.2515%
Source Step = 61.5885%
Source Step = 61.9256%
Source Step = 62.2627%
vernier = 0.0166855
Source Step = 62.6841%
Source Step = 63.1897%
Source Step = 63.6953%
Source Step = 64.2009%
Source Step = 64.7065%
vernier = 0.0250282
Source Step = 65.3133%
Source Step = 66.0717%
Source Step = 66.8301%
Source Step = 67.5886%
Source Step = 68.347%
vernier = 0.0375423
Source Step = 69.2192%
Source Step = 70.3568%
Source Step = 71.4945%
Source Step = 72.6321%
Source Step = 73.7698%
vernier = 0.0563135
Source Step = 75.0212%
Source Step = 76.7277%
Source Step = 78.4341%
Source Step = 80.1406%
Source Step = 81.8471%
vernier = 0.0844703
Source Step = 83.6389%
Source Step = 86.1986%
Source Step = 88.7583%
Source Step = 91.318%
Source Step = 93.4297%
vernier = 0.00527939
Source Step = 93.4018%
Source stepping aborted.
Starting source stepping with srcstepmethod=1
Source Step = 3.0303%
Source Step = 33.3333%
Source Step = 63.6364%
Source Step = 84.0909%
Source Step = 84.3513%
vernier = 0.000976563
Source Step = 84.3691%
Source Step = 84.3987%
Source Step = 84.4283%
Source Step = 84.4579%
Source Step = 84.4875%
Source Step = 84.517%
Source Step = 84.5466%
Source Step = 84.5762%
vernier = 0.00146484
Source Step = 84.6088%
Source Step = 84.6532%
Source Step = 84.6976%
Source Step = 84.742%
Source Step = 84.7863%
vernier = 0.00219727
Source Step = 84.8329%
Source Step = 84.8995%
Source Step = 84.9661%
Source Step = 85.0327%
Source Step = 85.0993%
Source Step = 85.1659%
vernier = 0.0032959
Source Step = 85.2657%
Source Step = 85.3656%
Source Step = 85.4655%
Source Step = 85.5654%
Source Step = 85.6652%
vernier = 0.00494385
Source Step = 85.8101%
Source Step = 85.9599%
Source Step = 86.1097%
Source Step = 86.2595%
Source Step = 86.4093%
vernier = 0.00741577
Source Step = 86.6191%
Source Step = 86.8438%
Source Step = 87.0685%
Source Step = 87.2932%
Source Step = 87.5179%
vernier = 0.0111237
Source Step = 87.8213%
Source Step = 88.1584%
Source Step = 88.4955%
Source Step = 88.8326%
Source Step = 89.1696%
vernier = 0.0166855
Source Step = 89.6078%
Source Step = 90.1135%
Source Step = 90.3758%
Source Step = 90.4074%
Source Step = 90.439%
Source Step = 90.4706%
Source Step = 90.5022%
Source Step = 90.5338%
Source Step = 90.5654%
Source Step = 90.597%
Source Step = 90.6286%
Source Step = 90.6602%
Source Step = 90.6918%
Source Step = 90.7234%
Source Step = 90.755%
Source Step = 90.7866%
Source Step = 90.8182%
Source Step = 90.8498%
Source Step = 90.8814%
Source Step = 90.913%
Source Step = 90.9446%
Source Step = 90.9762%
Source Step = 91.0078%
Source Step = 91.0394%
Source Step = 91.071%
Source Step = 91.1026%
Source Step = 91.1342%
Source Step = 91.1658%
Source Step = 91.1974%
Source Step = 91.229%
Source Step = 91.2606%
Source Step = 91.2922%
Source Step = 91.3238%
Source Step = 91.3554%
Source Step = 91.387%
Source Step = 91.4186%
Source Step = 91.4502%
Source Step = 91.4818%
Source Step = 91.5134%
Source Step = 91.545%
Source Step = 91.5766%
Source Step = 91.6082%
Source Step = 91.6398%
Source Step = 91.6714%
Source Step = 91.703%
Source Step = 91.7346%
Source Step = 91.7662%
Source Step = 91.7978%
Source Step = 91.8294%
Source Step = 91.861%
Source Step = 91.8926%
Source Step = 91.9242%
Source Step = 91.9558%
Source Step = 91.9874%
Source Step = 92.019%
Source Step = 92.0506%
Source Step = 92.0822%
Source Step = 92.1138%
Source Step = 92.1454%
Source Step = 92.177%
Source Step = 92.2086%
Source Step = 92.2402%
Source Step = 92.2718%
Source Step = 92.3034%
Source Step = 92.335%
Source Step = 92.3666%
Source Step = 92.3982%
Source Step = 92.4298%
Source Step = 92.4614%
Source Step = 92.493%
Source Step = 92.5246%
Source Step = 92.5562%
Source Step = 92.5878%
Source Step = 92.6194%
Source Step = 92.651%
Source Step = 92.6826%
Source Step = 92.7142%
Source Step = 92.7458%
Source Step = 92.7775%
Source Step = 92.8091%
Source Step = 92.8407%
Source Step = 92.8723%
Source Step = 92.9039%
Source Step = 92.9355%
Source Step = 92.9671%
Source Step = 92.9987%
Source Step = 93.0303%
Source Step = 93.0619%
Source Step = 93.0935%
Source Step = 93.1251%
Source Step = 93.1567%
Source Step = 93.1883%
Source Step = 93.2199%
Source Step = 93.2515%
Source Step = 93.2831%
Source Step = 93.3147%
Source Step = 93.3463%
Source Step = 93.3779%
Source Step = 93.4095%
Source Step = 93.4411%
Source Step = 93.4727%
Source Step = 93.5043%
Source Step = 93.5359%
Source Step = 93.5675%
Source Step = 93.5991%
Source Step = 93.6307%
Source Step = 93.6623%
Source Step = 93.6939%
Source Step = 93.7255%
Source Step = 93.7571%
Source Step = 93.7887%
Source Step = 93.8203%
Source Step = 93.8519%
Source Step = 93.8835%
Source Step = 93.9151%
Source Step = 93.9467%
Source Step = 93.9783%
Source Step = 94.0099%
Source Step = 94.0415%
Source Step = 94.0731%
Source Step = 94.1047%
Source Step = 94.1363%
Source Step = 94.1679%
Source Step = 94.1995%
Source Step = 94.2311%
Source Step = 94.2627%
Source Step = 94.2943%
Source Step = 94.3259%
Source Step = 94.3575%
Source Step = 94.3891%
Source Step = 94.4207%
Source Step = 94.4523%
Source Step = 94.4839%
Source Step = 94.5155%
Source Step = 94.5471%
Source Step = 94.5787%
Source Step = 94.6103%
Source Step = 94.6419%
Source Step = 94.6735%
Source Step = 94.7051%
Source Step = 94.7367%
Source Step = 94.7683%
Source Step = 94.7999%
Source Step = 94.8315%
Source Step = 94.8631%
Source Step = 94.8947%
Source Step = 94.9263%
Source Step = 94.9579%
Source Step = 94.9895%
Source Step = 95.0211%
Source Step = 95.0527%
Source Step = 95.0843%
Source Step = 95.1159%
Source Step = 95.1475%
Source Step = 95.1791%
Source Step = 95.2108%
Source Step = 95.2424%
Source Step = 95.274%
Source Step = 95.3056%
Source Step = 95.3372%
Source Step = 95.3688%
Source Step = 95.4004%
Source Step = 95.432%
Source Step = 95.4636%
Source Step = 95.4952%
Source Step = 95.5268%
Source Step = 95.5584%
Source Step = 95.59%
Source Step = 95.6216%
Source Step = 95.6532%
Source Step = 95.6848%
Source Step = 95.7164%
Source Step = 95.748%
Source Step = 95.7796%
Source Step = 95.8112%
Source Step = 95.8428%
Source Step = 95.8744%
Source Step = 95.906%
Source Step = 95.9376%
Source Step = 95.9692%
Source Step = 96.0008%
Source Step = 96.0324%
Source stepping aborted.
Pseudo Transient failed in finding the operating point at 5.02216 탎.
Direct Newton iteration failed to find .op point.  (Use ".option noopiter" to skip.)
Starting Gmin stepping
Gmin = 10
Gmin = 1.07374
Gmin = 0.115292
Gmin = 0.0123794
Gmin = 0.00132923
Gmin = 0.000142725
Gmin = 1.5325e-005
Gmin = 1.6455e-006
Gmin = 1.76685e-007
Gmin = 1.89714e-008
Gmin = 2.03704e-009
Gmin = 2.18725e-010
Gmin = 2.34854e-011
Gmin = 2.52173e-012
vernier = 0.5
vernier = 0.25
vernier = 0.125
vernier = 0.0625
Gmin = 1.5743e-012
vernier = 0.03125
vernier = 0.015625
vernier = 0.0078125
Gmin = 0
Gmin stepping aborted per request.

Starting source stepping with srcstepmethod=0
Source Step = 3.0303%
Source Step = 33.3333%
Source Step = 63.6364%
Source Step = 63.66%
Source Step = 63.6896%
Source Step = 63.7192%
Source Step = 63.7488%
Source Step = 63.7784%
vernier = 0.00146484
Source Step = 63.811%
Source Step = 63.8554%
Source Step = 63.8997%
Source Step = 63.9441%
Source Step = 63.9885%
vernier = 0.00219727
Source Step = 64.0351%
Source Step = 64.1017%
Source Step = 64.1683%
Source stepping aborted.
Starting source stepping with srcstepmethod=1
Source Step = 3.0303%
Source Step = 33.3333%
Source Step = 63.6364%
Source Step = 93.9394%
Source Step = 100%
Source Step = 99.0473%
vernier = 0.00390625
Source Step = 99.0266%
Source Step = 99.0562%
Source Step = 99.0858%
Source Step = 99.1154%
Source Step = 99.145%
Source Step = 99.1746%
Source Step = 99.2042%
Source Step = 99.2338%
Source Step = 99.2634%
Source Step = 99.293%
Source Step = 99.3226%
Source stepping aborted.
Pseudo Transient failed in finding the operating point at 5.01802 탎.
Direct Newton iteration failed to find .op point.  (Use ".option noopiter" to skip.)
Starting Gmin stepping
Gmin = 10
Gmin = 1.07374
Gmin = 0.115292
Gmin = 0.0123794
Gmin = 0.00132923
Gmin = 0.000142725
Gmin = 1.5325e-005
Gmin = 1.6455e-006
Gmin = 1.76685e-007
Gmin = 1.89714e-008
Gmin = 2.03704e-009
Gmin = 2.18725e-010
Gmin = 2.34854e-011
Gmin = 2.52173e-012
vernier = 0.5
vernier = 0.25
vernier = 0.125
Gmin = 1.68191e-012
vernier = 0.0625
vernier = 0.03125
vernier = 0.015625
vernier = 0.0078125
Gmin = 0
Gmin stepping aborted per request.

Starting source stepping with srcstepmethod=0
Source Step = 3.0303%
Source Step = 33.3333%
Source Step = 58.3333%
Source Step = 60.1918%
Source Step = 60.2184%
Source Step = 60.248%
Source Step = 60.2776%
Source Step = 60.3072%
Source Step = 60.3368%
vernier = 0.00146484
Source Step = 60.3723%
Source Step = 60.4167%
Source Step = 60.4611%
Source Step = 60.5054%
Source Step = 60.5498%
vernier = 0.00219727
Source Step = 60.6009%
Source Step = 60.6675%
Source Step = 60.734%
Source stepping aborted.
Starting source stepping with srcstepmethod=1
Source Step = 3.0303%
Source Step = 33.3333%
Source Step = 63.6364%
Source Step = 93.9394%
Source Step = 100%
Source Step = 99.0473%
vernier = 0.00390625
Source Step = 99.0266%
Source Step = 99.0562%
Source Step = 99.0858%
Source Step = 99.1154%
Source Step = 99.145%
Source Step = 99.1746%
Source Step = 99.2042%
Source Step = 99.2338%
Source Step = 99.2634%
Source stepping aborted.
Pseudo Transient failed in finding the operating point at 5.02 탎.
Direct Newton iteration failed to find .op point.  (Use ".option noopiter" to skip.)
Starting Gmin stepping
Gmin = 10
Gmin = 1.07374
Gmin = 0.115292
Gmin = 0.0123794
Gmin = 0.00132923
Gmin = 0.000142725
Gmin = 1.5325e-005
Gmin = 1.6455e-006
Gmin = 1.76685e-007
Gmin = 1.89714e-008
Gmin = 2.03704e-009
Gmin = 2.18725e-010
Gmin = 2.34854e-011
Gmin = 2.52173e-012
vernier = 0.5
vernier = 0.25
vernier = 0.125
Gmin = 1.11289e-012
vernier = 0.0625
vernier = 0.03125
Gmin = 0
Gmin stepping aborted per request.

Starting source stepping with srcstepmethod=0
Source Step = 3.0303%
Source Step = 33.3333%
Source Step = 58.3333%
Source Step = 60.1562%
Source Step = 60.2273%
Source Step = 60.2569%
Source Step = 60.2865%
Source Step = 60.3161%
Source Step = 60.3456%
Source Step = 60.3752%
vernier = 0.00146484
Source Step = 60.4196%
Source Step = 60.464%
Source Step = 60.5084%
Source Step = 60.5528%
Source Step = 60.5972%
vernier = 0.00219727
Source stepping aborted.
Starting source stepping with srcstepmethod=1
Source Step = 3.0303%
Source Step = 33.3333%
Source Step = 63.6364%
Source Step = 93.9394%
Source Step = 100%
Source Step = 99.0473%
vernier = 0.00390625
Source Step = 99.0266%
Source Step = 99.0562%
Source Step = 99.0858%
Source Step = 99.1154%
Source Step = 99.145%
Source Step = 99.1746%
Source Step = 99.2042%
Source Step = 99.2338%
Source Step = 99.2634%
Source Step = 99.293%
Source stepping aborted.
Pseudo Transient failed in finding the operating point at 5.022 탎.
Direct Newton iteration failed to find .op point.  (Use ".option noopiter" to skip.)
Starting Gmin stepping
Gmin = 10
Gmin = 1.07374
Gmin = 0.115292
Gmin = 0.0123794
Gmin = 0.00132923
Gmin = 0.000142725
Gmin = 1.5325e-005
Gmin = 1.6455e-006
Gmin = 1.76685e-007
Gmin = 1.89714e-008
Gmin = 2.03704e-009
Gmin = 2.18725e-010
Gmin = 2.34854e-011
Gmin = 2.52173e-012
vernier = 0.5
vernier = 0.25
vernier = 0.125
Gmin = 1.1335e-012
vernier = 0.0625
vernier = 0.03125
vernier = 0.015625
vernier = 0.0078125
vernier = 0.00390625
Gmin = 0
Gmin stepping aborted per request.

Starting source stepping with srcstepmethod=0
Source Step = 3.0303%
Source Step = 33.3333%
Source Step = 63.6364%
Source Step = 72.7332%
Source Step = 72.7628%
Source Step = 72.7924%
Source Step = 72.822%
Source stepping aborted.
Starting source stepping with srcstepmethod=1
Source Step = 3.0303%
Source Step = 33.3333%
Source Step = 63.6364%
Source Step = 93.9394%
Source Step = 100%
Source Step = 99.0473%
vernier = 0.00390625
Source Step = 99.0266%
Source Step = 99.0562%
Source Step = 99.0858%
Source Step = 99.1154%
Source Step = 99.145%
Source Step = 99.1746%
Source Step = 99.2042%
Source Step = 99.2338%
Source Step = 99.2634%
Source Step = 99.293%
Source stepping aborted.
Pseudo Transient failed in finding the operating point at 5.011 탎.
Direct Newton iteration failed to find .op point.  (Use ".option noopiter" to skip.)
Starting Gmin stepping
Gmin = 10
Gmin = 1.07374
Gmin = 0.115292
Gmin = 0.0123794
Gmin = 0.00132923
Gmin = 0.000142725
Gmin = 1.5325e-005
Gmin = 1.6455e-006
Gmin = 1.76685e-007
Gmin = 1.89714e-008
Gmin = 2.03704e-009
Gmin = 2.18725e-010
Gmin = 2.34854e-011
Gmin = 2.52173e-012
vernier = 0.5
vernier = 0.25
vernier = 0.125
vernier = 0.0625
Gmin = 1.79323e-012
vernier = 0.03125
vernier = 0.015625
vernier = 0.0078125
vernier = 0.00390625
Gmin = 0
Gmin stepping aborted per request.

Starting source stepping with srcstepmethod=0
Source Step = 3.0303%
Source Step = 33.3333%
Source Step = 63.6364%
Source Step = 69.2235%
Source stepping aborted.
Starting source stepping with srcstepmethod=1
Source Step = 3.0303%
Source Step = 14.4413%
vernier = 0.00390625
Source Step = 14.4206%
Source Step = 14.4502%
Source Step = 14.4798%
Source Step = 14.5094%
Source Step = 14.5389%
vernier = 0.00146484
Source Step = 14.5789%
Source Step = 14.6233%
Source Step = 14.6677%
Source Step = 14.7121%
Source Step = 14.7565%
vernier = 0.00219727
Source Step = 14.8142%
Source Step = 14.8807%
Source Step = 14.9473%
Source Step = 15.0139%
Source Step = 15.0805%
vernier = 0.0032959
Source Step = 15.1637%
Source Step = 15.2636%
Source Step = 15.3635%
Source Step = 15.4633%
Source Step = 15.5632%
vernier = 0.00494385
Source Step = 15.6831%
Source Step = 15.8329%
Source Step = 15.9827%
Source Step = 16.1325%
Source Step = 16.2823%
vernier = 0.00741577
Source Step = 16.4546%
Source Step = 16.6793%
Source Step = 16.9041%
Source Step = 17.1288%
Source Step = 17.3535%
vernier = 0.0111237
Source Step = 17.6007%
Source Step = 17.9378%
Source Step = 18.2749%
Source Step = 18.6119%
Source Step = 18.949%
vernier = 0.0166855
Source Step = 19.3029%
Source Step = 19.8086%
Source Step = 20.3142%
Source Step = 20.8198%
Source Step = 21.3254%
Source Step = 21.8311%
vernier = 0.0250282
Source Step = 22.5895%
Source Step = 23.3479%
Source Step = 24.1063%
Source Step = 24.8648%
Source Step = 25.6232%
vernier = 0.0375423
Source Step = 26.7229%
Source Step = 27.8606%
Source Step = 28.9982%
Source Step = 30.1359%
Source Step = 31.2735%
vernier = 0.0563135
Source Step = 32.8662%
Source Step = 34.5727%
Source Step = 36.2792%
Source Step = 37.9856%
Source Step = 39.6921%
vernier = 0.0844703
Source Step = 41.9958%
Source Step = 44.5555%
Source Step = 47.1152%
Source Step = 49.675%
Source Step = 52.2347%
vernier = 0.126705
Source Step = 55.5623%
Source Step = 59.4018%
Source Step = 63.2414%
Source Step = 67.081%
Source Step = 70.9205%
vernier = 0.190058
Source Step = 75.72%
Source Step = 81.4793%
Source Step = 87.2386%
Source Step = 92.998%
Source Step = 98.7573%
Source Step = 98.8203%
Source Step = 98.9103%
Source Step = 99.0003%
Source Step = 99.0903%
Source Step = 99.1803%
Source Step = 99.2702%
Source Step = 99.3602%
Source Step = 99.4502%
Source Step = 99.5402%
Source stepping aborted.
Pseudo Transient failed in finding the operating point at 5.01314 탎.
Direct Newton iteration failed to find .op point.  (Use ".option noopiter" to skip.)
Starting Gmin stepping
Gmin = 10
Gmin = 1.07374
Gmin = 0.115292
Gmin = 0.0123794
Gmin = 0.00132923
Gmin = 0.000142725
Gmin = 1.5325e-005
Gmin = 1.6455e-006
Gmin = 1.76685e-007
Gmin = 1.89714e-008
Gmin = 2.03704e-009
Gmin = 2.18725e-010
Gmin = 2.34854e-011
Gmin = 2.52173e-012
vernier = 0.5
vernier = 0.25
vernier = 0.125
Gmin = 1.37394e-012
vernier = 0.0625
vernier = 0.03125
vernier = 0.015625
vernier = 0.0078125
vernier = 0.00390625
Gmin = 0
Gmin stepping aborted per request.

Starting source stepping with srcstepmethod=0
Source Step = 3.0303%
Source Step = 33.3333%
Source Step = 56.0606%
Source Step = 57.5758%
Source Step = 57.5994%
Source Step = 57.629%
Source Step = 57.6586%
Source Step = 57.6882%
Source Step = 57.7178%
vernier = 0.00146484
Source Step = 57.7518%
Source Step = 57.7962%
Source stepping aborted.
Starting source stepping with srcstepmethod=1
Source Step = 3.0303%
Source Step = 33.3333%
Source Step = 63.6364%
Source Step = 93.9394%
Source Step = 100%
Source Step = 100%
vernier = 0.0625
Source Step = 99.2071%
Source Step = 99.2367%
Source Step = 99.2663%
Source Step = 99.2959%
Source Step = 99.3255%
Source Step = 99.3551%
Source Step = 99.3847%
Source Step = 99.4143%
Source stepping aborted.
Pseudo Transient failed in finding the operating point at 5.017 탎.
Direct Newton iteration failed to find .op point.  (Use ".option noopiter" to skip.)
Starting Gmin stepping
Gmin = 10
Gmin = 1.07374
Gmin = 0.115292
Gmin = 0.0123794
Gmin = 0.00132923
Gmin = 0.000142725
Gmin = 1.5325e-005
Gmin = 1.6455e-006
Gmin = 1.76685e-007
Gmin = 1.89714e-008
Gmin = 2.03704e-009
Gmin = 2.18725e-010
Gmin = 2.34854e-011
vernier = 0.5
Gmin = 3.9402e-012
vernier = 0.25
vernier = 0.333333
Gmin = 2.1223e-012
vernier = 0.166667
vernier = 0.0833333
Gmin = 0
Gmin stepping aborted per request.

Starting source stepping with srcstepmethod=0
Source Step = 3.0303%
Source Step = 33.3333%
Source Step = 58.3333%
Source Step = 59.9047%
Source Step = 59.9343%
Source Step = 59.9639%
Source Step = 59.9935%
Source Step = 60.0231%
Source Step = 60.0527%
Source stepping aborted.
Starting source stepping with srcstepmethod=1
Source Step = 3.0303%
Source Step = 33.3333%
Source Step = 63.6364%
Source Step = 93.9394%
Source Step = 100%
Source Step = 100%
Source stepping succeeded in finding the operating point.


Date: Wed Feb 12 16:25:25 2020
Total elapsed time: 23.286 seconds.

tnom = 27
temp = 27
method = trap
totiter = 7086504
traniter = 0
tranpoints = 0
accept = 0
rejected = 71278
matrix size = 21
fillins = 0
solver = Normal
Matrix Compiler1: 986 bytes object code size  0.3/0.3/[0.3]
Matrix Compiler2: off  [0.2]/0.3/0.3

