Circuit: * E:\8th_Sem\EE360A\Assignments\EE360_Assignments\Assignment2\Q5\5.asc


Date: Wed Feb 12 08:10:02 2020
Total elapsed time: 0.055 seconds.

tnom = 27
temp = 27
method = trap
totiter = 2964
traniter = 0
tranpoints = 0
accept = 0
rejected = 0
matrix size = 3
fillins = 0
solver = Normal
Matrix Compiler1: 86 bytes object code size  0.0/0.0/[0.0]
Matrix Compiler2: 163 bytes object code size  0.0/0.1/[0.0]

