Circuit: * E:\8th_Sem\EE360A\Assignments\Assignment2\Q5\5.asc


Date: Tue Feb 11 22:14:46 2020
Total elapsed time: 0.078 seconds.

tnom = 27
temp = 27
method = trap
totiter = 2964
traniter = 0
tranpoints = 0
accept = 0
rejected = 0
matrix size = 4
fillins = 0
solver = Normal
Matrix Compiler1: 100 bytes object code size  0.1/0.0/[0.0]
Matrix Compiler2: 248 bytes object code size  0.0/0.1/[0.0]

