Circuit: * E:\8th_Sem\EE360A\Assignments\EE360_Assignments\Assignment2\Q5\5.asc

Direct Newton iteration failed to find .op point.  (Use ".option noopiter" to skip.)
Starting Gmin stepping
Gmin = 10
Gmin = 1.07374
Gmin = 0.115292
Gmin = 0.0123794
Gmin = 0.00132923
Gmin = 0.000142725
Gmin = 1.5325e-005
Gmin = 1.6455e-006
Gmin = 1.76685e-007
Gmin = 1.89714e-008
Gmin = 2.03704e-009
Gmin = 2.18725e-010
Gmin = 2.34854e-011
Gmin = 2.52173e-012
vernier = 0.5
Gmin = 4.23076e-013
vernier = 0.25
vernier = 0.125
vernier = 0.0625
vernier = 0.03125
Gmin = 3.31691e-013
vernier = 0.015625
vernier = 0.0078125
vernier = 0.00390625
vernier = 0.00195313
vernier = 0.000976563
Gmin = 3.33468e-013
vernier = 0.000488281
Gmin = 0
Gmin stepping failed

Starting source stepping with srcstepmethod=0
Source Step = 3.0303%
Source Step = 33.3333%
Source Step = 63.6364%
Source Step = 88.6364%
Source Step = 89.0033%
Source Step = 89.0299%
Source Step = 89.0595%
Source Step = 89.0891%
Source Step = 89.1187%
Source Step = 89.1483%
vernier = 0.00146484
Source Step = 89.1838%
Source Step = 89.2282%
Source Step = 89.2726%
Source Step = 89.317%
Source Step = 89.3614%
vernier = 0.00219727
Source Step = 89.4124%
Source Step = 89.479%
Source Step = 89.5456%
Source Step = 89.6122%
Source Step = 89.6788%
vernier = 0.0032959
Source Step = 89.752%
Source Step = 89.8519%
Source Step = 89.9518%
Source Step = 90.0516%
Source Step = 90.1515%
Source Step = 90.2514%
Source Step = 90.3513%
Source Step = 90.4511%
Source Step = 90.551%
Source Step = 90.6509%
Source Step = 90.7508%
Source Step = 90.8506%
Source Step = 90.9505%
Source Step = 91.0504%
Source Step = 91.1503%
Source Step = 91.2501%
Source Step = 91.35%
Source Step = 91.4499%
Source Step = 91.5498%
Source Step = 91.6497%
Source Step = 91.7495%
Source Step = 91.8494%
Source Step = 91.9493%
Source Step = 92.0492%
Source Step = 92.149%
Source Step = 92.2489%
Source Step = 92.3488%
Source Step = 92.4487%
Source Step = 92.5485%
Source Step = 92.6484%
Source Step = 92.7483%
Source Step = 92.8482%
Source Step = 92.948%
Source Step = 93.0479%
Source Step = 93.1478%
Source Step = 93.2477%
Source Step = 93.3475%
Source Step = 93.4474%
vernier = 0.00494385
Source Step = 93.5523%
Source Step = 93.6646%
Source Step = 93.7021%
Source Step = 93.7396%
Source Step = 93.777%
Source Step = 93.8145%
Source Step = 93.8519%
Source Step = 93.8894%
Source Step = 93.9268%
Source Step = 93.9643%
vernier = 0.00185394
Source Step = 94.0073%
Source Step = 94.0635%
Source Step = 94.1197%
Source Step = 94.1759%
Source Step = 94.2321%
Source Step = 94.2882%
Source Step = 94.3444%
Source Step = 94.4006%
Source Step = 94.4568%
Source Step = 94.513%
Source Step = 94.5691%
Source Step = 94.6253%
Source Step = 94.6815%
Source Step = 94.7377%
Source Step = 94.7939%
Source Step = 94.85%
Source Step = 94.9062%
Source Step = 94.9624%
Source Step = 95.0186%
Source Step = 95.0748%
vernier = 0.00278091
Source Step = 95.1422%
Source Step = 95.2264%
Source Step = 95.3107%
Source Step = 95.395%
Source Step = 95.4793%
Source Step = 95.5635%
Source Step = 95.6478%
Source Step = 95.7321%
Source Step = 95.8163%
Source Step = 95.9006%
Source Step = 95.9849%
Source Step = 96.0692%
Source Step = 96.1534%
Source Step = 96.2377%
Source Step = 96.322%
Source Step = 96.4062%
Source Step = 96.4905%
Source Step = 96.5748%
Source Step = 96.659%
Source Step = 96.7433%
Source Step = 96.8276%
Source Step = 96.9119%
Source Step = 96.9961%
Source Step = 97.0804%
Source Step = 97.1647%
Source Step = 97.2489%
Source Step = 97.3332%
Source Step = 97.4175%
Source Step = 97.5017%
Source Step = 97.586%
Source Step = 97.6703%
Source Step = 97.7546%
Source Step = 97.8388%
Source Step = 97.9231%
Source Step = 98.0074%
Source Step = 98.0916%
Source Step = 98.1759%
Source Step = 98.2602%
Source Step = 98.3444%
Source Step = 98.4287%
Source Step = 98.513%
Source Step = 98.5973%
Source Step = 98.6815%
Source Step = 98.7658%
Source Step = 98.8501%
Source Step = 98.9343%
Source Step = 99.0186%
Source Step = 99.1029%
Source Step = 99.1871%
Source Step = 99.2714%
Source Step = 99.3557%
Source Step = 99.44%
Source Step = 99.5242%
Source Step = 99.6085%
Source Step = 99.6928%
Source Step = 99.777%
Source Step = 99.8613%
Source Step = 99.9456%
Source Step = 100%
Source Step = 100%
Source stepping succeeded in finding the operating point.

Direct Newton iteration failed to find .op point.  (Use ".option noopiter" to skip.)
Starting Gmin stepping
Gmin = 10
Gmin = 1.07374
Gmin = 0.115292
Gmin = 0.0123794
Gmin = 0.00132923
Gmin = 0.000142725
Gmin = 1.5325e-005
Gmin = 1.6455e-006
Gmin = 1.76685e-007
Gmin = 1.89714e-008
Gmin = 2.03704e-009
Gmin = 2.18725e-010
Gmin = 2.34854e-011
Gmin = 2.52173e-012
vernier = 0.5
Gmin = 7.16483e-013
vernier = 0.25
vernier = 0.125
vernier = 0.0625
Gmin = 6.81089e-013
vernier = 0.03125
vernier = 0.015625
vernier = 0.0078125
vernier = 0.00390625
vernier = 0.00195313
vernier = 0.000976563
vernier = 0.000488281
Gmin = 0
Gmin = 0
Gmin stepping failed

Starting source stepping with srcstepmethod=0
Source Step = 3.0303%
Source Step = 33.3333%
Source Step = 63.6364%
Source Step = 88.6364%
Source Step = 90.4593%
vernier = 0.000976563
Source Step = 90.477%
Source Step = 90.5066%
Source Step = 90.5362%
Source Step = 90.5658%
Source Step = 90.5954%
Source Step = 90.625%
Source Step = 90.6546%
Source Step = 90.6842%
Source Step = 90.7138%
Source Step = 90.7434%
Source Step = 90.773%
Source Step = 90.8026%
Source Step = 90.8321%
Source Step = 90.8617%
vernier = 0.00146484
Source Step = 90.8943%
Source Step = 90.9387%
Source Step = 90.9831%
Source Step = 91.0275%
Source Step = 91.0719%
Source Step = 91.1162%
Source Step = 91.1606%
Source Step = 91.205%
Source Step = 91.2494%
Source Step = 91.2938%
Source Step = 91.3382%
Source Step = 91.3826%
Source Step = 91.427%
Source Step = 91.4714%
Source Step = 91.5157%
Source Step = 91.5601%
Source Step = 91.6045%
Source Step = 91.6489%
Source Step = 91.6933%
Source Step = 91.7377%
Source Step = 91.7821%
Source Step = 91.8265%
Source Step = 91.8709%
vernier = 0.00219727
Source Step = 91.9263%
Source Step = 91.9929%
Source Step = 92.0595%
Source Step = 92.1261%
Source Step = 92.1927%
Source Step = 92.2593%
Source Step = 92.3258%
Source Step = 92.3924%
Source Step = 92.459%
Source Step = 92.5256%
Source Step = 92.5922%
Source Step = 92.6588%
Source Step = 92.7253%
Source Step = 92.7919%
Source Step = 92.8585%
Source Step = 92.9251%
Source Step = 92.9917%
Source Step = 93.0583%
Source Step = 93.1249%
Source Step = 93.1914%
Source Step = 93.258%
Source Step = 93.3246%
Source Step = 93.3912%
Source Step = 93.4578%
Source Step = 93.5244%
Source Step = 93.5909%
Source Step = 93.6575%
vernier = 0.0032959
Source Step = 93.7374%
Source Step = 93.8373%
Source Step = 93.9372%
Source Step = 94.0371%
Source Step = 94.1369%
Source Step = 94.2368%
Source Step = 94.3367%
Source Step = 94.4366%
Source Step = 94.5364%
Source Step = 94.6363%
Source Step = 94.7362%
Source Step = 94.8361%
Source Step = 94.9359%
Source Step = 95.0358%
Source Step = 95.1357%
Source Step = 95.2356%
Source Step = 95.3354%
Source Step = 95.4353%
Source Step = 95.5352%
Source Step = 95.6351%
Source Step = 95.7349%
Source Step = 95.8348%
Source Step = 95.9347%
Source Step = 96.0346%
Source Step = 96.1344%
Source Step = 96.2343%
Source Step = 96.3342%
Source Step = 96.4341%
Source Step = 96.5339%
Source Step = 96.6338%
Source Step = 96.7337%
Source Step = 96.8336%
Source Step = 96.9334%
Source Step = 97.0333%
Source Step = 97.1332%
Source Step = 97.2331%
Source Step = 97.3329%
Source Step = 97.4328%
Source Step = 97.5327%
Source Step = 97.6326%
Source Step = 97.7325%
Source Step = 97.8323%
Source Step = 97.9322%
Source Step = 98.0321%
Source Step = 98.132%
Source Step = 98.2318%
Source Step = 98.3317%
Source Step = 98.4316%
Source Step = 98.5315%
Source Step = 98.6313%
Source Step = 98.7312%
Source Step = 98.8311%
Source Step = 98.931%
Source Step = 99.0308%
Source Step = 99.1307%
Source Step = 99.2306%
Source Step = 99.3305%
Source Step = 99.4303%
Source Step = 99.5302%
Source Step = 99.6301%
Source Step = 99.73%
Source Step = 99.8298%
Source Step = 99.9297%
Source Step = 100%
Source Step = 100%
Source Step = 100%
Source Step = 100%
Source Step = 100%
Source Step = 100%
Source Step = 100%
Source Step = 100%
Source Step = 100%
Source Step = 100%
Source Step = 100%
Source Step = 100%
Source Step = 100%
Source Step = 100%
Source Step = 100%
Source Step = 100%
Source Step = 100%
Source Step = 100%
Source Step = 100%
Source Step = 100%
Source Step = 100%
Source Step = 100%
Source Step = 100%
Source Step = 100%
Source Step = 100%
Source Step = 100%
Source Step = 100%
Source Step = 100%
Source Step = 100%
Source Step = 100%
Source Step = 100%
Source Step = 100%
Source Step = 100%
Source Step = 100%
Source Step = 100%
Source Step = 100%
Source Step = 100%
Source Step = 100%
Source Step = 100%
Source Step = 100%
Source Step = 100%
Source Step = 100%
Source Step = 100%
Source Step = 100%
Source Step = 100%
Source Step = 100%
Source Step = 100%
Source Step = 100%
Source Step = 100%
Source Step = 100%
Source Step = 100%
Source Step = 100%
Source Step = 100%
Source Step = 100%
Source Step = 100%
Source Step = 100%
Source Step = 100%
Source Step = 100%
Source Step = 100%
Source Step = 100%
Source Step = 100%
Source Step = 100%
Source Step = 100%
Source Step = 100%
Source Step = 100%
Source Step = 100%
Source Step = 100%
Source Step = 100%
Source Step = 100%
Source Step = 100%
Source Step = 100%
Source Step = 100%
Source Step = 100%
Source Step = 100%
Source Step = 100%
Source Step = 100%
Source Step = 100%
Source Step = 100%
Source Step = 100%
Source Step = 100%
Source Step = 100%
Source Step = 100%
Source Step = 100%
Source Step = 100%
Source Step = 100%
Source Step = 100%
Source Step = 100%
Source Step = 100%
Source Step = 100%
Source Step = 100%
Source Step = 100%
Source Step = 100%
Source Step = 100%
Source Step = 100%
Source Step = 100%
Source Step = 100%
Source Step = 100%
Source Step = 100%
Source Step = 100%
Source Step = 100%
Source Step = 100%
Source Step = 100%
Source Step = 100%
Source Step = 100%
Source Step = 100%
Source Step = 100%
Source Step = 100%
Source Step = 100%
Source Step = 100%
Source Step = 100%
Source Step = 100%
Source Step = 100%
Source Step = 100%
Source Step = 100%
Source Step = 100%
Source Step = 100%
Source Step = 100%
Source Step = 100%
Source Step = 100%
Source Step = 100%
Source Step = 100%
Source Step = 100%
Source Step = 100%
Source Step = 100%
Source Step = 100%
Source Step = 100%
Source Step = 100%
Source Step = 100%
Source Step = 100%
Source Step = 100%
Source Step = 100%
Source Step = 100%
Source Step = 100%
Source Step = 100%
Source Step = 100%
Source Step = 100%
Source Step = 100%
Source Step = 100%
Source Step = 100%
Source Step = 100%
Source Step = 100%
Source Step = 100%
Source Step = 100%
Source Step = 100%
Source Step = 100%
Source Step = 100%
Source Step = 100%
Source Step = 100%
Source Step = 100%
Source Step = 100%
Source Step = 100%
Source Step = 100%
Source Step = 100%
Source Step = 100%
Source Step = 100%
Source Step = 100%
Source Step = 100%
Source Step = 100%
Source Step = 100%
Source Step = 100%
Source Step = 100%
Source Step = 100%
Source Step = 100%
Source Step = 100%
Source Step = 100%
Source Step = 100%
Source Step = 100%
Source Step = 100%
Source Step = 100%
Source Step = 100%
Source Step = 100%
Source Step = 100%
Source Step = 100%
Source Step = 100%
Source Step = 100%
Source Step = 100%
Source Step = 100%
Source Step = 100%
Source Step = 100%
Source Step = 100%
Source Step = 100%
Source Step = 100%
Source Step = 100%
Source Step = 100%
Source Step = 100%
Source Step = 100%
Source Step = 100%
Source Step = 100%
Source Step = 100%
Source Step = 100%
Source Step = 100%
Source Step = 100%
Source Step = 100%
Source Step = 100%
Source Step = 100%
Source Step = 100%
Source Step = 100%
Source Step = 100%
Source Step = 100%
Source Step = 100%
Source Step = 100%
Source Step = 100%
Source Step = 100%
Source Step = 100%
Source Step = 100%
Source Step = 100%
Source Step = 100%
Source Step = 100%
Source Step = 100%
Source Step = 100%
Source Step = 100%
Source Step = 100%
Source Step = 100%
Source Step = 100%
Source Step = 100%
Source Step = 100%
Source Step = 100%
Source Step = 100%
Source Step = 100%
Source Step = 100%
Source Step = 100%
Source Step = 100%
Source Step = 100%
Source Step = 100%
Source Step = 100%
Source Step = 100%
Source Step = 100%
Source Step = 100%
Source Step = 100%
Source Step = 100%
Source Step = 100%
Source Step = 100%
Source Step = 100%
Source Step = 100%
Source Step = 100%
Source Step = 100%
Source Step = 100%
Source Step = 100%
Source Step = 100%
Source Step = 100%
Source Step = 100%
Source Step = 100%
Source Step = 100%
Source Step = 100%
Source Step = 100%
Source Step = 100%
Source Step = 100%
Source Step = 100%
Source Step = 100%
Source Step = 100%
Source Step = 100%
Source Step = 100%
Source Step = 100%
Source Step = 100%
Source Step = 100%
Source Step = 100%
Source Step = 100%
Source Step = 100%
Source Step = 100%
Source Step = 100%
Source Step = 100%
Source Step = 100%
Source Step = 100%
Source Step = 100%
Source Step = 100%
Source Step = 100%
Source Step = 100%
Source Step = 100%
Source Step = 100%
Source Step = 100%
Source Step = 100%
Source Step = 100%
Source Step = 100%
Source Step = 100%
Source Step = 100%
Source Step = 100%
Source Step = 100%
Source Step = 100%
Source Step = 100%
Source Step = 100%
Source Step = 100%
Source Step = 100%
Source Step = 100%
Source Step = 100%
Source Step = 100%
Source Step = 100%
Source Step = 100%
Source Step = 100%
Source Step = 100%
Source Step = 100%
Source Step = 100%
Source Step = 100%
Source Step = 100%
Source Step = 100%
Source Step = 100%
Source Step = 100%
Source Step = 100%
Source Step = 100%
Source Step = 100%
Source Step = 100%
Source Step = 100%
Source Step = 100%
Source Step = 100%
Source Step = 100%
Source Step = 100%
Source Step = 100%
Source Step = 100%
Source Step = 100%
Source Step = 100%
Source Step = 100%
Source Step = 100%
Source Step = 100%
Source Step = 100%
Source Step = 100%
Source Step = 100%
Source Step = 100%
Source Step = 100%
Source Step = 100%
Source Step = 100%
Source Step = 100%
Source Step = 100%
Source Step = 100%
Source Step = 100%
Source Step = 100%
Source Step = 100%
Source Step = 100%
Source Step = 100%
Source Step = 100%
Source Step = 100%
Source Step = 100%
Source Step = 100%
Source Step = 100%
Source Step = 100%
Source Step = 100%
Source Step = 100%
Source Step = 100%
Source Step = 100%
Source Step = 100%
Source Step = 100%
Source Step = 100%
Source Step = 100%
Source Step = 100%
Source Step = 100%
Source Step = 100%
Source Step = 100%
Source Step = 100%
Source Step = 100%
Source Step = 100%
Source Step = 100%
Source Step = 100%
Source Step = 100%
Source Step = 100%
Source Step = 100%
Source Step = 100%
Source Step = 100%
Source Step = 100%
Source Step = 100%
Source Step = 100%
Source Step = 100%
Source Step = 100%
Source Step = 100%
Source Step = 100%
Source Step = 100%
Source Step = 100%
Source Step = 100%
Source Step = 100%
Source Step = 100%
Source Step = 100%
Source Step = 100%
Source Step = 100%
Source Step = 100%
Source Step = 100%
Source Step = 100%
Source Step = 100%
Source Step = 100%
Source Step = 100%
Source Step = 100%
Source Step = 100%
Source Step = 100%
Source Step = 100%
Source Step = 100%
Source Step = 100%
Source Step = 100%
Source Step = 100%
Source Step = 100%
Source Step = 100%
Source Step = 100%
Source Step = 100%
Source Step = 100%
Source Step = 100%
Source Step = 100%
Source Step = 100%
Source Step = 100%
Source Step = 100%
Source Step = 100%
Source Step = 100%
Source Step = 100%
Source Step = 100%
Source Step = 100%
Source Step = 100%
Source Step = 100%
Source Step = 100%
Source Step = 100%
Source Step = 100%
Source Step = 100%
Source Step = 100%
Source Step = 100%
Source Step = 100%
Source Step = 100%
Source Step = 100%
Source Step = 100%
Source Step = 100%
Source Step = 100%
Source Step = 100%
Source Step = 100%
Source Step = 100%
Source Step = 100%
Source Step = 100%
Source Step = 100%
Source Step = 100%
Source Step = 100%
Source Step = 100%
Source Step = 100%
Source Step = 100%
Source Step = 100%
Source Step = 100%
Source Step = 100%
Source Step = 100%
Source Step = 100%
Source Step = 100%
Source Step = 100%
Source Step = 100%
Source Step = 100%
Source Step = 100%
Source Step = 100%
Source Step = 100%
Source Step = 100%
Source Step = 100%
Source Step = 100%
Source Step = 100%
Source Step = 100%
Source Step = 100%
Source Step = 100%
Source Step = 100%
Source Step = 100%
Source Step = 100%
Source Step = 100%
Source Step = 100%
Source Step = 100%
Source Step = 100%
Source Step = 100%
Source Step = 100%
Source Step = 100%
Source Step = 100%
Source Step = 100%
Source Step = 100%
Source Step = 100%
Source Step = 100%
Source Step = 100%
Source Step = 100%
Source Step = 100%
Source Step = 100%
Source Step = 100%
Source Step = 100%
Source Step = 100%
Source Step = 100%
Source Step = 100%
Source Step = 100%
Source Step = 100%
Source Step = 100%
Source Step = 100%
Source Step = 100%
Source Step = 100%
Source Step = 100%
Source Step = 100%
Source Step = 100%
Source Step = 100%
Source Step = 100%
Source Step = 100%
Source Step = 100%
Source Step = 100%
Source Step = 100%
Source Step = 100%
Source Step = 100%
Source Step = 100%
Source Step = 100%
Source Step = 100%
Source Step = 100%
Source Step = 100%
Source Step = 100%
Source Step = 100%
Source Step = 100%
Source Step = 100%
Source Step = 100%
Source Step = 100%
Source Step = 100%
Source Step = 100%
Source Step = 100%
Source Step = 100%
Source Step = 100%
Source Step = 100%
Source Step = 100%
Source Step = 100%
Source Step = 100%
Source Step = 100%
Source Step = 100%
Source Step = 100%
Source Step = 100%
Source Step = 100%
Source Step = 100%
Source Step = 100%
Source Step = 100%
Source Step = 100%
Source Step = 100%
Source Step = 100%
Source Step = 100%
Source Step = 100%
Source Step = 100%
Source Step = 100%
Source Step = 100%
Source Step = 100%
Source Step = 100%
Source Step = 100%
Source Step = 100%
Source Step = 100%
Source Step = 100%
Source Step = 100%
Source Step = 100%
Source Step = 100%
Source Step = 100%
Source Step = 100%
Source Step = 100%
Source Step = 100%
Source Step = 100%
Source Step = 100%
Source Step = 100%
Source Step = 100%
Source Step = 100%
Source Step = 100%
Source Step = 100%
Source Step = 100%
Source Step = 100%
Source Step = 100%
Source Step = 100%
Source Step = 100%
Source Step = 100%
Source Step = 100%
Source Step = 100%
Source Step = 100%
Source Step = 100%
Source Step = 100%
Source Step = 100%
Source Step = 100%
Source Step = 100%
Source Step = 100%
Source Step = 100%
Source Step = 100%
Source Step = 100%
Source Step = 100%
Source Step = 100%
Source Step = 100%
Source Step = 100%
Source Step = 100%
Source Step = 100%
Source Step = 100%
Source Step = 100%
Source Step = 100%
Source Step = 100%
Source Step = 100%
Source Step = 100%
Source Step = 100%
Source Step = 100%
Source Step = 100%
Source Step = 100%
Source Step = 100%
Source Step = 100%
Source Step = 100%
Source Step = 100%
Source Step = 100%
Source Step = 100%
Source Step = 100%
Source Step = 100%
Source Step = 100%
Source Step = 100%
Source Step = 100%
Source Step = 100%
Source Step = 100%
Source Step = 100%
Source Step = 100%
Source Step = 100%
Source Step = 100%
Source Step = 100%
Source Step = 100%
Source Step = 100%
Source Step = 100%
Source Step = 100%
Source Step = 100%
Source Step = 100%
Source Step = 100%
Source Step = 100%
Source Step = 100%
Source Step = 100%
Source Step = 100%
Source Step = 100%
Source Step = 100%
Source Step = 100%
Source Step = 100%
Source Step = 100%
Source Step = 100%
Source Step = 100%
Source Step = 100%
Source Step = 100%
Source Step = 100%
Source Step = 100%
Source Step = 100%
Source Step = 100%
Source Step = 100%
Source Step = 100%
Source Step = 100%
Source Step = 100%
Source Step = 100%
Source Step = 100%
Source Step = 100%
Source Step = 100%
Source Step = 100%
Source Step = 100%
Source Step = 100%
Source Step = 100%
Source Step = 100%
Source Step = 100%
Source Step = 100%
Source Step = 100%
Source Step = 100%
Source Step = 100%
Source Step = 100%
Source Step = 100%
Source Step = 100%
Source Step = 100%
Source Step = 100%
Source Step = 100%
Source Step = 100%
Source Step = 100%
Source Step = 100%
Source Step = 100%
Source Step = 100%
Source Step = 100%
Source Step = 100%
Source Step = 100%
Source Step = 100%
Source Step = 100%
Source Step = 100%
Source Step = 100%
Source Step = 100%
Source Step = 100%
Source Step = 100%
Source Step = 100%
Source Step = 100%
Source Step = 100%
Source Step = 100%
Source Step = 100%
Source Step = 100%
Source Step = 100%
Source Step = 100%
Source Step = 100%
Source Step = 100%
Source Step = 100%
Source Step = 100%
Source Step = 100%
Source Step = 100%
Source Step = 100%
Source Step = 100%
Source Step = 100%
Source Step = 100%
Source Step = 100%
Source Step = 100%
Source Step = 100%
Source Step = 100%
Source Step = 100%
Source Step = 100%
Source Step = 100%
Source Step = 100%
Source Step = 100%
Source Step = 100%
Source Step = 100%
Source Step = 100%
Source Step = 100%
Source Step = 100%
Source Step = 100%
Source Step = 100%
Source Step = 100%
Source Step = 100%
Source Step = 100%
Source Step = 100%
Source Step = 100%
Source Step = 100%
Source Step = 100%
Source Step = 100%
Source Step = 100%
Source Step = 100%
Source Step = 100%
Source Step = 100%
Source Step = 100%
Source Step = 100%
Source Step = 100%
Source Step = 100%
Source Step = 100%
Source Step = 100%
Source Step = 100%
Source Step = 100%
Source Step = 100%
Source Step = 100%
Source Step = 100%
Source Step = 100%
Source Step = 100%
Source Step = 100%
Source Step = 100%
Source Step = 100%
Source Step = 100%
Source Step = 100%
Source Step = 100%
Source Step = 100%
Source Step = 100%
Source Step = 100%
Source Step = 100%
Source Step = 100%
Source Step = 100%
Source Step = 100%
Source Step = 100%
Source Step = 100%
Source Step = 100%
Source Step = 100%
Source Step = 100%
Source Step = 100%
Source Step = 100%
Source Step = 100%
Source Step = 100%
Source Step = 100%
Source Step = 100%
Source Step = 100%
Source Step = 100%
Source Step = 100%
Source Step = 100%
Source Step = 100%
Source Step = 100%
Source Step = 100%
Source Step = 100%
Source Step = 100%
Source Step = 100%
Source Step = 100%
Source Step = 100%
Source Step = 100%
Source Step = 100%
Source Step = 100%
Source Step = 100%
Source Step = 100%
Source Step = 100%
Source Step = 100%
Source Step = 100%
Source Step = 100%
Source stepping aborted.
Starting source stepping with srcstepmethod=1
Source Step = 3.0303%
Source Step = 33.3333%
Source Step = 63.6364%
Source Step = 93.9394%
vernier = 0.25
Source Step = 91.06%
Source Step = 91.0896%
Source Step = 91.1192%
Source Step = 91.1488%
Source Step = 91.1784%
Source Step = 91.208%
Source Step = 91.2376%
Source Step = 91.2672%
Source Step = 91.2968%
Source Step = 91.3263%
Source Step = 91.3559%
Source Step = 91.3855%
Source Step = 91.4151%
Source Step = 91.4447%
Source Step = 91.4743%
Source Step = 91.5039%
Source Step = 91.5335%
Source Step = 91.5631%
Source Step = 91.5927%
Source Step = 91.6223%
Source Step = 91.6519%
Source Step = 91.6815%
Source Step = 91.7111%
Source Step = 91.7406%
Source Step = 91.7702%
Source Step = 91.7998%
Source Step = 91.8294%
Source Step = 91.859%
Source Step = 91.8886%
Source Step = 91.9182%
Source Step = 91.9478%
Source Step = 91.9774%
Source Step = 92.007%
Source Step = 92.0366%
Source Step = 92.0662%
Source Step = 92.0958%
Source Step = 92.1254%
Source Step = 92.1549%
Source Step = 92.1845%
Source Step = 92.2141%
Source Step = 92.2437%
Source Step = 92.2733%
Source Step = 92.3029%
Source Step = 92.3325%
Source Step = 92.3621%
Source Step = 92.3917%
Source Step = 92.4213%
Source Step = 92.4509%
Source Step = 92.4805%
Source Step = 92.5101%
Source Step = 92.5397%
Source Step = 92.5692%
Source Step = 92.5988%
Source Step = 92.6284%
Source Step = 92.658%
Source Step = 92.6876%
Source Step = 92.7172%
Source Step = 92.7468%
Source Step = 92.7764%
Source Step = 92.806%
Source Step = 92.8356%
Source Step = 92.8652%
Source Step = 92.8948%
Source Step = 92.9244%
Source Step = 92.954%
Source Step = 92.9835%
Source Step = 93.0131%
Source Step = 93.0427%
Source Step = 93.0723%
Source Step = 93.1019%
Source Step = 93.1315%
Source Step = 93.1611%
Source Step = 93.1907%
Source Step = 93.2203%
Source Step = 93.2499%
Source Step = 93.2795%
Source Step = 93.3091%
Source Step = 93.3387%
Source Step = 93.3683%
Source Step = 93.3978%
Source Step = 93.4274%
Source Step = 93.457%
Source Step = 93.4866%
Source Step = 93.5162%
Source Step = 93.5458%
Source Step = 93.5754%
Source Step = 93.605%
Source Step = 93.6346%
Source Step = 93.6642%
Source Step = 93.6938%
Source Step = 93.7234%
Source Step = 93.753%
Source Step = 93.7826%
Source Step = 93.8121%
Source Step = 93.8417%
Source Step = 93.8713%
Source Step = 93.9009%
Source Step = 93.9305%
Source Step = 93.9601%
Source Step = 93.9897%
Source Step = 94.0193%
Source Step = 94.0489%
Source Step = 94.0785%
Source Step = 94.1081%
Source Step = 94.1377%
Source Step = 94.1673%
Source Step = 94.1969%
Source Step = 94.2264%
Source Step = 94.256%
Source Step = 94.2856%
Source Step = 94.3152%
Source Step = 94.3448%
Source Step = 94.3744%
Source Step = 94.404%
Source Step = 94.4336%
Source Step = 94.4632%
Source Step = 94.4928%
Source Step = 94.5224%
Source Step = 94.552%
Source Step = 94.5816%
Source Step = 94.6112%
Source Step = 94.6407%
Source Step = 94.6703%
Source Step = 94.6999%
Source Step = 94.7295%
Source Step = 94.7591%
Source Step = 94.7887%
Source Step = 94.8183%
Source Step = 94.8479%
Source Step = 94.8775%
Source Step = 94.9071%
Source Step = 94.9367%
Source Step = 94.9663%
Source Step = 94.9959%
Source Step = 95.0254%
Source Step = 95.055%
Source Step = 95.0846%
Source Step = 95.1142%
Source Step = 95.1438%
Source Step = 95.1734%
Source Step = 95.203%
Source Step = 95.2326%
Source Step = 95.2622%
Source Step = 95.2918%
Source Step = 95.3214%
Source Step = 95.351%
Source Step = 95.3806%
Source Step = 95.4102%
Source Step = 95.4397%
Source Step = 95.4693%
Source Step = 95.4989%
Source Step = 95.5285%
Source Step = 95.5581%
Source Step = 95.5877%
Source Step = 95.6173%
Source Step = 95.6469%
Source Step = 95.6765%
Source Step = 95.7061%
Source Step = 95.7357%
Source Step = 95.7653%
Source Step = 95.7949%
Source Step = 95.8245%
Source Step = 95.854%
Source Step = 95.8836%
Source Step = 95.9132%
Source Step = 95.9428%
Source Step = 95.9724%
Source Step = 96.002%
Source Step = 96.0316%
Source Step = 96.0612%
Source Step = 96.0908%
Source Step = 96.1204%
Source Step = 96.15%
Source Step = 96.1796%
Source Step = 96.2092%
Source Step = 96.2388%
Source Step = 96.2683%
Source Step = 96.2979%
Source Step = 96.3275%
Source Step = 96.3571%
Source Step = 96.3867%
Source Step = 96.4163%
Source Step = 96.4459%
Source Step = 96.4755%
Source Step = 96.5051%
Source Step = 96.5347%
Source Step = 96.5643%
Source Step = 96.5939%
Source Step = 96.6235%
Source Step = 96.6531%
Source Step = 96.6826%
Source Step = 96.7122%
Source Step = 96.7418%
Source Step = 96.7714%
Source Step = 96.801%
Source Step = 96.8306%
Source Step = 96.8602%
Source Step = 96.8898%
Source Step = 96.9194%
Source Step = 96.949%
Source Step = 96.9786%
Source Step = 97.0082%
Source Step = 97.0378%
Source Step = 97.0674%
Source Step = 97.0969%
Source Step = 97.1265%
Source Step = 97.1561%
Source Step = 97.1857%
Source Step = 97.2153%
Source Step = 97.2449%
Source Step = 97.2745%
Source Step = 97.3041%
Source Step = 97.3337%
Source Step = 97.3633%
Source Step = 97.3929%
Source Step = 97.4225%
Source Step = 97.4521%
Source Step = 97.4817%
Source Step = 97.5112%
Source Step = 97.5408%
Source Step = 97.5704%
Source Step = 97.6%
Source Step = 97.6296%
Source Step = 97.6592%
Source Step = 97.6888%
Source Step = 97.7184%
Source Step = 97.748%
Source Step = 97.7776%
Source Step = 97.8072%
Source Step = 97.8368%
Source Step = 97.8664%
Source Step = 97.896%
Source Step = 97.9255%
Source Step = 97.9551%
Source Step = 97.9847%
Source Step = 98.0143%
Source Step = 98.0439%
Source Step = 98.0735%
Source Step = 98.1031%
Source Step = 98.1327%
Source Step = 98.1623%
Source Step = 98.1919%
Source Step = 98.2215%
Source Step = 98.2511%
Source Step = 98.2807%
Source Step = 98.3103%
Source Step = 98.3398%
Source Step = 98.3694%
Source Step = 98.399%
Source Step = 98.4286%
Source Step = 98.4582%
Source Step = 98.4878%
Source Step = 98.5174%
Source Step = 98.547%
Source Step = 98.5766%
Source Step = 98.6062%
Source Step = 98.6358%
Source Step = 98.6654%
Source Step = 98.695%
Source Step = 98.7246%
Source Step = 98.7541%
Source Step = 98.7837%
Source Step = 98.8133%
Source Step = 98.8429%
Source Step = 98.8725%
Source Step = 98.9021%
Source Step = 98.9317%
Source Step = 98.9613%
Source Step = 98.9909%
Source Step = 99.0205%
Source Step = 99.0501%
Source Step = 99.0797%
Source Step = 99.1093%
Source Step = 99.1388%
Source Step = 99.1684%
Source Step = 99.198%
Source Step = 99.2276%
Source Step = 99.2572%
Source Step = 99.2868%
Source Step = 99.3164%
Source Step = 99.346%
Source Step = 99.3756%
Source Step = 99.4052%
Source Step = 99.4348%
Source Step = 99.4644%
Source Step = 99.494%
Source Step = 99.5236%
Source Step = 99.5531%
Source Step = 99.5827%
Source Step = 99.6123%
Source Step = 99.6419%
Source Step = 99.6715%
Source Step = 99.7011%
Source Step = 99.7307%
Source Step = 99.7603%
Source Step = 99.7899%
Source Step = 99.8195%
Source Step = 99.8491%
Source Step = 99.8787%
Source Step = 99.9083%
Source Step = 99.9379%
Source Step = 99.9674%
Source Step = 99.997%
Source Step = 100%
Source Step = 100%
Source Step = 100%
Source Step = 100%
Source Step = 100%
Source Step = 100%
Source Step = 100%
Source Step = 100%
Source Step = 100%
Source Step = 100%
Source Step = 100%
Source Step = 100%
Source Step = 100%
Source Step = 100%
Source Step = 100%
Source Step = 100%
Source Step = 100%
Source Step = 100%
Source Step = 100%
Source Step = 100%
Source Step = 100%
Source Step = 100%
Source Step = 100%
Source Step = 100%
Source Step = 100%
Source Step = 100%
Source Step = 100%
Source Step = 100%
Source Step = 100%
Source Step = 100%
Source Step = 100%
Source Step = 100%
Source Step = 100%
Source Step = 100%
Source Step = 100%
Source Step = 100%
Source Step = 100%
Source Step = 100%
Source Step = 100%
Source Step = 100%
Source Step = 100%
Source Step = 100%
Source Step = 100%
Source Step = 100%
Source Step = 100%
Source Step = 100%
Source Step = 100%
Source Step = 100%
Source Step = 100%
Source Step = 100%
Source Step = 100%
Source Step = 100%
Source Step = 100%
Source Step = 100%
Source Step = 100%
Source Step = 100%
Source Step = 100%
Source Step = 100%
Source Step = 100%
Source Step = 100%
Source Step = 100%
Source Step = 100%
Source Step = 100%
Source Step = 100%
Source Step = 100%
Source Step = 100%
Source Step = 100%
Source Step = 100%
Source Step = 100%
Source Step = 100%
Source Step = 100%
Source Step = 100%
Source Step = 100%
Source Step = 100%
Source Step = 100%
Source Step = 100%
Source Step = 100%
Source Step = 100%
Source Step = 100%
Source Step = 100%
Source Step = 100%
Source Step = 100%
Source Step = 100%
Source Step = 100%
Source Step = 100%
Source Step = 100%
Source Step = 100%
Source Step = 100%
Source Step = 100%
Source Step = 100%
Source Step = 100%
Source Step = 100%
Source Step = 100%
Source Step = 100%
Source Step = 100%
Source Step = 100%
Source Step = 100%
Source Step = 100%
Source Step = 100%
Source Step = 100%
Source Step = 100%
Source Step = 100%
Source Step = 100%
Source Step = 100%
Source Step = 100%
Source Step = 100%
Source Step = 100%
Source Step = 100%
Source Step = 100%
Source Step = 100%
Source Step = 100%
Source Step = 100%
Source Step = 100%
Source Step = 100%
Source Step = 100%
Source Step = 100%
Source Step = 100%
Source Step = 100%
Source Step = 100%
Source Step = 100%
Source Step = 100%
Source Step = 100%
Source Step = 100%
Source Step = 100%
Source Step = 100%
Source Step = 100%
Source Step = 100%
Source Step = 100%
Source Step = 100%
Source Step = 100%
Source Step = 100%
Source Step = 100%
Source Step = 100%
Source Step = 100%
Source Step = 100%
Source Step = 100%
Source Step = 100%
Source Step = 100%
Source Step = 100%
Source Step = 100%
Source Step = 100%
Source Step = 100%
Source Step = 100%
Source Step = 100%
Source Step = 100%
Source Step = 100%
Source Step = 100%
Source Step = 100%
Source Step = 100%
Source Step = 100%
Source Step = 100%
Source Step = 100%
Source Step = 100%
Source Step = 100%
Source Step = 100%
Source Step = 100%
Source Step = 100%
Source Step = 100%
Source Step = 100%
Source Step = 100%
Source Step = 100%
Source Step = 100%
Source Step = 100%
Source Step = 100%
Source Step = 100%
Source Step = 100%
Source Step = 100%
Source Step = 100%
Source Step = 100%
Source Step = 100%
Source Step = 100%
Source Step = 100%
Source Step = 100%
Source Step = 100%
Source Step = 100%
Source Step = 100%
Source Step = 100%
Source Step = 100%
Source Step = 100%
Source Step = 100%
Source Step = 100%
Source Step = 100%
Source Step = 100%
Source Step = 100%
Source Step = 100%
Source Step = 100%
Source Step = 100%
Source Step = 100%
Source Step = 100%
Source Step = 100%
Source Step = 100%
Source Step = 100%
Source Step = 100%
Source Step = 100%
Source Step = 100%
Source Step = 100%
Source Step = 100%
Source Step = 100%
Source Step = 100%
Source Step = 100%
Source Step = 100%
Source Step = 100%
Source Step = 100%
Source Step = 100%
Source Step = 100%
Source Step = 100%
Source Step = 100%
Source Step = 100%
Source Step = 100%
Source Step = 100%
Source Step = 100%
Source Step = 100%
Source Step = 100%
Source Step = 100%
Source Step = 100%
Source Step = 100%
Source Step = 100%
Source Step = 100%
Source Step = 100%
Source Step = 100%
Source Step = 100%
Source Step = 100%
Source Step = 100%
Source Step = 100%
Source Step = 100%
Source Step = 100%
Source Step = 100%
Source Step = 100%
Source Step = 100%
Source Step = 100%
Source Step = 100%
Source Step = 100%
Source Step = 100%
Source Step = 100%
Source Step = 100%
Source Step = 100%
Source Step = 100%
Source Step = 100%
Source Step = 100%
Source Step = 100%
Source Step = 100%
Source Step = 100%
Source Step = 100%
Source Step = 100%
Source Step = 100%
Source Step = 100%
Source Step = 100%
Source Step = 100%
Source Step = 100%
Source Step = 100%
Source Step = 100%
Source Step = 100%
Source Step = 100%
Source Step = 100%
Source Step = 100%
Source Step = 100%
Source Step = 100%
Source Step = 100%
Source Step = 100%
Source Step = 100%
Source Step = 100%
Source Step = 100%
Source Step = 100%
Source Step = 100%
Source Step = 100%
Source Step = 100%
Source Step = 100%
Source Step = 100%
Source Step = 100%
Source Step = 100%
Source Step = 100%
Source Step = 100%
Source Step = 100%
Source Step = 100%
Source Step = 100%
Source Step = 100%
Source Step = 100%
Source Step = 100%
Source Step = 100%
Source Step = 100%
Source Step = 100%
Source Step = 100%
Source Step = 100%
Source Step = 100%
Source Step = 100%
Source Step = 100%
Source Step = 100%
Source Step = 100%
Source Step = 100%
Source Step = 100%
Source Step = 100%
Source Step = 100%
Source Step = 100%
Source Step = 100%
Source Step = 100%
Source Step = 100%
Source Step = 100%
Source Step = 100%
Source Step = 100%
Source Step = 100%
Source Step = 100%
Source Step = 100%
Source Step = 100%
Source Step = 100%
Source Step = 100%
Source Step = 100%
Source Step = 100%
Source Step = 100%
Source Step = 100%
Source Step = 100%
Source Step = 100%
Source Step = 100%
Source Step = 100%
Source Step = 100%
Source Step = 100%
Source Step = 100%
Source Step = 100%
Source Step = 100%
Source Step = 100%
Source Step = 100%
Source Step = 100%
Source Step = 100%
Source Step = 100%
Source Step = 100%
Source Step = 100%
Source Step = 100%
Source Step = 100%
Source Step = 100%
Source Step = 100%
Source Step = 100%
Source Step = 100%
Source Step = 100%
Source Step = 100%
Source Step = 100%
Source Step = 100%
Source Step = 100%
Source Step = 100%
Source Step = 100%
Source Step = 100%
Source Step = 100%
Source Step = 100%
Source Step = 100%
Source Step = 100%
Source Step = 100%
Source Step = 100%
Source Step = 100%
Source Step = 100%
Source Step = 100%
Source Step = 100%
Source Step = 100%
Source Step = 100%
Source Step = 100%
Source Step = 100%
Source Step = 100%
Source Step = 100%
Source Step = 100%
Source Step = 100%
Source Step = 100%
Source Step = 100%
Source Step = 100%
Source Step = 100%
Source Step = 100%
Source Step = 100%
Source Step = 100%
Source Step = 100%
Source Step = 100%
Source Step = 100%
Source Step = 100%
Source Step = 100%
Source Step = 100%
Source Step = 100%
Source Step = 100%
Source Step = 100%
Source Step = 100%
Source Step = 100%
Source Step = 100%
Source Step = 100%
Source Step = 100%
Source Step = 100%
Source Step = 100%
Source Step = 100%
Source Step = 100%
Source Step = 100%
Source Step = 100%
Source Step = 100%
Source Step = 100%
Source Step = 100%
Source Step = 100%
Source Step = 100%
Source Step = 100%
Source Step = 100%
Source Step = 100%
Source Step = 100%
Source Step = 100%
Source Step = 100%
Source Step = 100%
Source Step = 100%
Source Step = 100%
Source Step = 100%
Source Step = 100%
Source Step = 100%
Source Step = 100%
Source Step = 100%
Source Step = 100%
Source Step = 100%
Source Step = 100%
Source Step = 100%
Source Step = 100%
Source Step = 100%
Source Step = 100%
Source Step = 100%
Source Step = 100%
Source Step = 100%
Source Step = 100%
Source Step = 100%
Source Step = 100%
Source Step = 100%
Source Step = 100%
Source Step = 100%
Source Step = 100%
Source Step = 100%
Source Step = 100%
Source Step = 100%
Source Step = 100%
Source Step = 100%
Source Step = 100%
Source Step = 100%
Source Step = 100%
Source Step = 100%
Source Step = 100%
Source Step = 100%
Source Step = 100%
Source Step = 100%
Source Step = 100%
Source Step = 100%
Source Step = 100%
Source Step = 100%
Source Step = 100%
Source Step = 100%
Source Step = 100%
Source Step = 100%
Source Step = 100%
Source Step = 100%
Source Step = 100%
Source Step = 100%
Source Step = 100%
Source Step = 100%
Source Step = 100%
Source Step = 100%
Source Step = 100%
Source Step = 100%
Source Step = 100%
Source Step = 100%
Source Step = 100%
Source Step = 100%
Source Step = 100%
Source Step = 100%
Source Step = 100%
Source Step = 100%
Source Step = 100%
Source Step = 100%
Source Step = 100%
Source Step = 100%
Source Step = 100%
Source Step = 100%
Source Step = 100%
Source Step = 100%
Source Step = 100%
Source Step = 100%
Source Step = 100%
Source Step = 100%
Source Step = 100%
Source Step = 100%
Source Step = 100%
Source Step = 100%
Source Step = 100%
Source Step = 100%
Source Step = 100%
Source Step = 100%
Source Step = 100%
Source Step = 100%
Source Step = 100%
Source Step = 100%
Source Step = 100%
Source Step = 100%
Source Step = 100%
Source Step = 100%
Source Step = 100%
Source Step = 100%
Source Step = 100%
Source Step = 100%
Source Step = 100%
Source Step = 100%
Source Step = 100%
Source Step = 100%
Source Step = 100%
Source Step = 100%
Source Step = 100%
Source Step = 100%
Source Step = 100%
Source Step = 100%
Source Step = 100%
Source Step = 100%
Source Step = 100%
Source Step = 100%
Source Step = 100%
Source Step = 100%
Source Step = 100%
Source Step = 100%
Source Step = 100%
Source Step = 100%
Source Step = 100%
Source Step = 100%
Source Step = 100%
Source Step = 100%
Source Step = 100%
Source Step = 100%
Source Step = 100%
Source Step = 100%
Source Step = 100%
Source Step = 100%
Source Step = 100%
Source Step = 100%
Source Step = 100%
Source Step = 100%
Source Step = 100%
Source Step = 100%
Source Step = 100%
Source Step = 100%
Source Step = 100%
Source Step = 100%
Source Step = 100%
Source Step = 100%
Source Step = 100%
Source Step = 100%
Source Step = 100%
Source Step = 100%
Source Step = 100%
Source Step = 100%
Source Step = 100%
Source Step = 100%
Source Step = 100%
Source Step = 100%
Source Step = 100%
Source Step = 100%
Source Step = 100%
Source Step = 100%
Source Step = 100%
Source Step = 100%
Source Step = 100%
Source Step = 100%
Source Step = 100%
Source Step = 100%
Source Step = 100%
Source Step = 100%
Source Step = 100%
Source Step = 100%
Source Step = 100%
Source Step = 100%
Source Step = 100%
Source Step = 100%
Source Step = 100%
Source Step = 100%
Source Step = 100%
Source Step = 100%
Source Step = 100%
Source Step = 100%
Source Step = 100%
Source Step = 100%
Source Step = 100%
Source Step = 100%
Source Step = 100%
Source Step = 100%
Source Step = 100%
Source Step = 100%
Source Step = 100%
Source Step = 100%
Source Step = 100%
Source Step = 100%
Source Step = 100%
Source Step = 100%
Source Step = 100%
Source Step = 100%
Source Step = 100%
Source Step = 100%
Source Step = 100%
Source Step = 100%
Source Step = 100%
Source Step = 100%
Source Step = 100%
Source Step = 100%
Source Step = 100%
Source Step = 100%
Source Step = 100%
Source Step = 100%
Source Step = 100%
Source Step = 100%
Source Step = 100%
Source Step = 100%
Source Step = 100%
Source Step = 100%
Source Step = 100%
Source Step = 100%
Source Step = 100%
Source Step = 100%
Source Step = 100%
Source Step = 100%
Source Step = 100%
Source Step = 100%
Source Step = 100%
Source Step = 100%
Source Step = 100%
Source Step = 100%
Source Step = 100%
Source Step = 100%
Source Step = 100%
Source Step = 100%
Source Step = 100%
Source Step = 100%
Source Step = 100%
Source Step = 100%
Source Step = 100%
Source Step = 100%
Source Step = 100%
Source Step = 100%
Source Step = 100%
Source Step = 100%
Source Step = 100%
Source Step = 100%
Source Step = 100%
Source Step = 100%
Source Step = 100%
Source Step = 100%
Source Step = 100%
Source Step = 100%
Source Step = 100%
Source Step = 100%
Source Step = 100%
Source Step = 100%
Source Step = 100%
Source Step = 100%
Source Step = 100%
Source Step = 100%
Source Step = 100%
Source Step = 100%
Source Step = 100%
Source Step = 100%
Source Step = 100%
Source Step = 100%
Source Step = 100%
Source Step = 100%
Source Step = 100%
Source Step = 100%
Source Step = 100%
Source Step = 100%
Source Step = 100%
Source Step = 100%
Source Step = 100%
Source Step = 100%
Source Step = 100%
Source Step = 100%
Source Step = 100%
Source Step = 100%
Source Step = 100%
Source Step = 100%
Source Step = 100%
Source Step = 100%
Source Step = 100%
Source Step = 100%
Source Step = 100%
Source Step = 100%
Source Step = 100%
Source Step = 100%
Source Step = 100%
Source Step = 100%
Source Step = 100%
Source Step = 100%
Source Step = 100%
Source Step = 100%
Source Step = 100%
Source Step = 100%
Source Step = 100%
Source Step = 100%
Source Step = 100%
Source Step = 100%
Source Step = 100%
Source Step = 100%
Source Step = 100%
Source Step = 100%
Source Step = 100%
Source Step = 100%
Source Step = 100%
Source Step = 100%
Source Step = 100%
Source Step = 100%
Source Step = 100%
Source Step = 100%
Source Step = 100%
Source Step = 100%
Source Step = 100%
Source Step = 100%
Source Step = 100%
Source Step = 100%
Source Step = 100%
Source Step = 100%
Source Step = 100%
Source Step = 100%
Source Step = 100%
Source Step = 100%
Source Step = 100%
Source Step = 100%
Source Step = 100%
Source Step = 100%
Source Step = 100%
Source Step = 100%
Source Step = 100%
Source Step = 100%
Source Step = 100%
Source Step = 100%
Source Step = 100%
Source Step = 100%
Source Step = 100%
Source Step = 100%
Source Step = 100%
Source Step = 100%
Source Step = 100%
Source Step = 100%
Source Step = 100%
Source Step = 100%
Source Step = 100%
Source Step = 100%
Source Step = 100%
Source Step = 100%
Source Step = 100%
Source Step = 100%
Source Step = 100%
Source Step = 100%
Source Step = 100%
Source Step = 100%
Source Step = 100%
Source Step = 100%
Source Step = 100%
Source Step = 100%
Source Step = 100%
Source Step = 100%
Source Step = 100%
Source Step = 100%
Source Step = 100%
Source Step = 100%
Source Step = 100%
Source Step = 100%
Source Step = 100%
Source Step = 100%
Source Step = 100%
Source Step = 100%
Source Step = 100%
Source Step = 100%
Source Step = 100%
Source Step = 100%
Source Step = 100%
Source Step = 100%
Source Step = 100%
Source Step = 100%
Source Step = 100%
Source Step = 100%
Source Step = 100%
Source Step = 100%
Source Step = 100%
Source Step = 100%
Source Step = 100%
Source Step = 100%
Source Step = 100%
Source Step = 100%
Source Step = 100%
Source Step = 100%
Source Step = 100%
Source Step = 100%
Source Step = 100%
Source Step = 100%
Source Step = 100%
Source Step = 100%
Source Step = 100%
Source Step = 100%
Source Step = 100%
Source Step = 100%
Source Step = 100%
Source Step = 100%
Source Step = 100%
Source Step = 100%
Source Step = 100%
Source Step = 100%
Source Step = 100%
Source Step = 100%
Source Step = 100%
Source Step = 100%
Source Step = 100%
Source Step = 100%
Source Step = 100%
Source Step = 100%
Source Step = 100%
Source Step = 100%
Source Step = 100%
Source Step = 100%
Source Step = 100%
Source Step = 100%
Source Step = 100%
Source Step = 100%
Source Step = 100%
Source Step = 100%
Source Step = 100%
Source Step = 100%
Source Step = 100%
Source Step = 100%
Source Step = 100%
Source Step = 100%
Source Step = 100%
Source Step = 100%
Source Step = 100%
Source Step = 100%
Source Step = 100%
Source Step = 100%
Source Step = 100%
Source Step = 100%
Source Step = 100%
Source Step = 100%
Source Step = 100%
Source Step = 100%
Source Step = 100%
Source Step = 100%
Source Step = 100%
Source Step = 100%
Source Step = 100%
Source Step = 100%
Source Step = 100%
Source Step = 100%
Source Step = 100%
Source Step = 100%
Source Step = 100%
Source Step = 100%
Source Step = 100%
Source Step = 100%
Source Step = 100%
Source Step = 100%
Source Step = 100%
Source Step = 100%
Source Step = 100%
Source Step = 100%
Source Step = 100%
Source Step = 100%
Source Step = 100%
Source Step = 100%
Source Step = 100%
Source Step = 100%
Source Step = 100%
Source Step = 100%
Source Step = 100%
Source Step = 100%
Source Step = 100%
Source Step = 100%
Source Step = 100%
Source Step = 100%
Source Step = 100%
Source Step = 100%
Source Step = 100%
Source Step = 100%
Source Step = 100%
Source Step = 100%
Source Step = 100%
Source Step = 100%
Source Step = 100%
Source Step = 100%
Source Step = 100%
Source Step = 100%
Source Step = 100%
Source Step = 100%
Source Step = 100%
Source Step = 100%
Source Step = 100%
Source Step = 100%
Source Step = 100%
Source Step = 100%
Source Step = 100%
Source Step = 100%
Source Step = 100%
Source Step = 100%
Source Step = 100%
Source Step = 100%
Source Step = 100%
Source Step = 100%
Source Step = 100%
Source Step = 100%
Source Step = 100%
Source Step = 100%
Source Step = 100%
Source Step = 100%
Source Step = 100%
Source Step = 100%
Source Step = 100%
Source Step = 100%
Source Step = 100%
Source Step = 100%
Source Step = 100%
Source Step = 100%
Source Step = 100%
Source Step = 100%
Source Step = 100%
Source Step = 100%
Source Step = 100%
Source Step = 100%
Source Step = 100%
Source Step = 100%
Source Step = 100%
Source Step = 100%
Source Step = 100%
Source Step = 100%
Source Step = 100%
Source Step = 100%
Source Step = 100%
Source Step = 100%
Source Step = 100%
Source Step = 100%
Source Step = 100%
Source Step = 100%
Source Step = 100%
Source Step = 100%
Source Step = 100%
Source Step = 100%
Source Step = 100%
Source Step = 100%
Source Step = 100%
Source Step = 100%
Source Step = 100%
Source Step = 100%
Source Step = 100%
Source Step = 100%
Source Step = 100%
Source Step = 100%
Source Step = 100%
Source Step = 100%
Source Step = 100%
Source Step = 100%
Source Step = 100%
Source Step = 100%
Source Step = 100%
Source Step = 100%
Source Step = 100%
Source Step = 100%
Source Step = 100%
Source Step = 100%
Source Step = 100%
Source Step = 100%
Source Step = 100%
Source Step = 100%
Source Step = 100%
Source Step = 100%
Source Step = 100%
Source Step = 100%
Source Step = 100%
Source Step = 100%
Source Step = 100%
Source Step = 100%
Source Step = 100%
Source Step = 100%
Source Step = 100%
Source Step = 100%
Source Step = 100%
Source Step = 100%
Source Step = 100%
Source Step = 100%
Source Step = 100%
Source Step = 100%
Source Step = 100%
Source Step = 100%
Source Step = 100%
Source Step = 100%
Source Step = 100%
Source Step = 100%
Source Step = 100%
Source Step = 100%
Source Step = 100%
Source Step = 100%
Source Step = 100%
Source Step = 100%
Source Step = 100%
Source Step = 100%
Source Step = 100%
Source Step = 100%
Source Step = 100%
Source Step = 100%
Source Step = 100%
Source Step = 100%
Source Step = 100%
Source Step = 100%
Source Step = 100%
Source Step = 100%
Source Step = 100%
Source Step = 100%
Source Step = 100%
Source Step = 100%
Source Step = 100%
Source Step = 100%
Source Step = 100%
Source Step = 100%
Source Step = 100%
Source Step = 100%
Source Step = 100%
Source Step = 100%
Source Step = 100%
Source Step = 100%
Source Step = 100%
Source Step = 100%
Source Step = 100%
Source Step = 100%
Source Step = 100%
Source Step = 100%
Source Step = 100%
Source Step = 100%
Source Step = 100%
Source Step = 100%
Source Step = 100%
Source Step = 100%
Source Step = 100%
Source Step = 100%
Source Step = 100%
Source Step = 100%
Source Step = 100%
Source Step = 100%
Source Step = 100%
Source Step = 100%
Source Step = 100%
Source Step = 100%
Source Step = 100%
Source Step = 100%
Source Step = 100%
Source Step = 100%
Source Step = 100%
Source Step = 100%
Source Step = 100%
Source Step = 100%
Source Step = 100%
Source Step = 100%
Source Step = 100%
Source Step = 100%
Source Step = 100%
Source Step = 100%
Source Step = 100%
Source Step = 100%
Source Step = 100%
Source Step = 100%
Source Step = 100%
Source Step = 100%
Source Step = 100%
Source Step = 100%
Source Step = 100%
Source Step = 100%
Source Step = 100%
Source Step = 100%
Source Step = 100%
Source Step = 100%
Source Step = 100%
Source Step = 100%
Source Step = 100%
Source Step = 100%
Source Step = 100%
Source Step = 100%
Source Step = 100%
Source Step = 100%
Source Step = 100%
Source Step = 100%
Source Step = 100%
Source Step = 100%
Source Step = 100%
Source Step = 100%
Source Step = 100%
Source Step = 100%
Source Step = 100%
Source Step = 100%
Source Step = 100%
Source Step = 100%
Source Step = 100%
Source Step = 100%
Source Step = 100%
Source Step = 100%
Source Step = 100%
Source Step = 100%
Source Step = 100%
Source Step = 100%
Source Step = 100%
Source Step = 100%
Source Step = 100%
Source Step = 100%
Source Step = 100%
Source Step = 100%
Source Step = 100%
Source Step = 100%
Source Step = 100%
Source Step = 100%
Source Step = 100%
Source Step = 100%
Source Step = 100%
Source Step = 100%
Source Step = 100%
Source Step = 100%
Source Step = 100%
Source Step = 100%
Source Step = 100%
Source Step = 100%
Source Step = 100%
Source Step = 100%
Source Step = 100%
Source Step = 100%
Source Step = 100%
Source Step = 100%
Source Step = 100%
Source Step = 100%
Source Step = 100%
Source Step = 100%
Source Step = 100%
Source Step = 100%
Source Step = 100%
Source Step = 100%
Source Step = 100%
Source Step = 100%
Source Step = 100%
Source Step = 100%
Source Step = 100%
Source Step = 100%
Source Step = 100%
Source Step = 100%
Source Step = 100%
Source Step = 100%
Source Step = 100%
Source Step = 100%
Source Step = 100%
Source Step = 100%
Source Step = 100%
Source Step = 100%
Source Step = 100%
Source Step = 100%
Source Step = 100%
Source Step = 100%
Source Step = 100%
Source Step = 100%
Source Step = 100%
Source Step = 100%
Source Step = 100%
Source Step = 100%
Source Step = 100%
Source Step = 100%
Source Step = 100%
Source Step = 100%
Source Step = 100%
Source Step = 100%
Source Step = 100%
Source Step = 100%
Source Step = 100%
Source Step = 100%
Source Step = 100%
Source Step = 100%
Source Step = 100%
Source Step = 100%
Source Step = 100%
Source Step = 100%
Source Step = 100%
Source Step = 100%
Source Step = 100%
Source Step = 100%
Source Step = 100%
Source Step = 100%
Source Step = 100%
Source Step = 100%
Source Step = 100%
Source Step = 100%
Source Step = 100%
Source Step = 100%
Source Step = 100%
Source Step = 100%
Source Step = 100%
Source Step = 100%
Source Step = 100%
Source Step = 100%
Source Step = 100%
Source Step = 100%
Source Step = 100%
Source Step = 100%
Source Step = 100%
Source Step = 100%
Source Step = 100%
Source Step = 100%
Source Step = 100%
Source Step = 100%
Source Step = 100%
Source Step = 100%
Source Step = 100%
Source Step = 100%
Source Step = 100%
Source Step = 100%
Source Step = 100%
Source Step = 100%
Source Step = 100%
Source Step = 100%
Source Step = 100%
Source Step = 100%
Source Step = 100%
Source Step = 100%
Source Step = 100%
Source Step = 100%
Source Step = 100%
Source Step = 100%
Source Step = 100%
Source Step = 100%
Source Step = 100%
Source Step = 100%
Source Step = 100%
Source Step = 100%
Source Step = 100%
Source Step = 100%
Source Step = 100%
Source Step = 100%
Source Step = 100%
Source Step = 100%
Source Step = 100%
Source Step = 100%
Source Step = 100%
Source Step = 100%
Source Step = 100%
Source Step = 100%
Source Step = 100%
Source Step = 100%
Source Step = 100%
Source Step = 100%
Source Step = 100%
Source Step = 100%
Source Step = 100%
Source Step = 100%
Source Step = 100%
Source Step = 100%
Source Step = 100%
Source Step = 100%
Source Step = 100%
Source Step = 100%
Source Step = 100%
Source Step = 100%
Source Step = 100%
Source Step = 100%
Source Step = 100%
Source Step = 100%
Source Step = 100%
Source Step = 100%
Source Step = 100%
Source Step = 100%
Source Step = 100%
Source Step = 100%
Source Step = 100%
Source Step = 100%
Source Step = 100%
Source Step = 100%
Source Step = 100%
Source Step = 100%
Source Step = 100%
Source Step = 100%
Source Step = 100%
Source Step = 100%
Source Step = 100%
Source Step = 100%
Source Step = 100%
Source Step = 100%
Source Step = 100%
Source Step = 100%
Source Step = 100%
Source Step = 100%
Source Step = 100%
Source Step = 100%
Source Step = 100%
Source Step = 100%
Source Step = 100%
Source Step = 100%
Source Step = 100%
Source Step = 100%
Source Step = 100%
Source Step = 100%
Source Step = 100%
Source Step = 100%
Source Step = 100%
Source Step = 100%
Source Step = 100%
Source Step = 100%
Source Step = 100%
Source Step = 100%
Source Step = 100%
Source Step = 100%
Source Step = 100%
Source Step = 100%
Source Step = 100%
Source Step = 100%
Source Step = 100%
Source Step = 100%
Source Step = 100%
Source Step = 100%
Source Step = 100%
Source Step = 100%
Source Step = 100%
Source Step = 100%
Source Step = 100%
Source Step = 100%
Source Step = 100%
Source Step = 100%
Source Step = 100%
Source Step = 100%
Source Step = 100%
Source Step = 100%
Source Step = 100%
Source Step = 100%
Source Step = 100%
Source Step = 100%
Source Step = 100%
Source Step = 100%
Source Step = 100%
Source Step = 100%
Source Step = 100%
Source Step = 100%
Source Step = 100%
Source Step = 100%
Source Step = 100%
Source Step = 100%
Source Step = 100%
Source Step = 100%
Source Step = 100%
Source Step = 100%
Source Step = 100%
Source Step = 100%
Source Step = 100%
Source Step = 100%
Source Step = 100%
Source Step = 100%
Source Step = 100%
Source Step = 100%
Source Step = 100%
Source Step = 100%
Source Step = 100%
Source Step = 100%
Source Step = 100%
Source Step = 100%
Source Step = 100%
Source Step = 100%
Source Step = 100%
Source Step = 100%
Source Step = 100%
Source Step = 100%
Source Step = 100%
Source stepping aborted.
Pseudo Transient failed in finding the operating point at 13.0251 s.
Direct Newton iteration failed to find .op point.  (Use ".option noopiter" to skip.)
Starting Gmin stepping
Gmin = 10
Gmin = 1.07374
Gmin = 0.115292
Gmin = 0.0123794
Gmin = 0.00132923
Gmin = 0.000142725
Gmin = 1.5325e-005
Gmin = 1.6455e-006
Gmin = 1.76685e-007
Gmin = 1.89714e-008
Gmin = 2.03704e-009
Gmin = 2.18725e-010
Gmin = 2.34854e-011
Gmin = 2.52173e-012
vernier = 0.5
Gmin = 4.70084e-013
vernier = 0.25
vernier = 0.125
vernier = 0.0625
vernier = 0.03125
vernier = 0.015625
vernier = 0.0078125
Gmin = 4.42432e-013
vernier = 0.00390625
vernier = 0.00195313
vernier = 0.000976563
vernier = 0.000488281
Gmin = 0
Gmin stepping failed

Starting source stepping with srcstepmethod=0
Source Step = 3.0303%
Source Step = 33.3333%
Source Step = 63.6364%
Source Step = 79.9242%
Source Step = 80.2468%
Source Step = 80.2764%
Source Step = 80.306%
Source Step = 80.3356%
Source Step = 80.3652%
Source Step = 80.3948%
vernier = 0.00146484
Source Step = 80.4347%
Source Step = 80.4791%
Source Step = 80.5235%
Source Step = 80.5679%
Source Step = 80.6123%
vernier = 0.00219727
Source Step = 80.67%
Source Step = 80.7366%
Source Step = 80.8031%
Source Step = 80.8697%
Source Step = 80.9363%
vernier = 0.0032959
Source Step = 81.0195%
Source Step = 81.1194%
Source Step = 81.2193%
Source Step = 81.3192%
Source Step = 81.419%
vernier = 0.00494385
Source Step = 81.5389%
Source Step = 81.6887%
Source Step = 81.8385%
Source Step = 81.9883%
Source Step = 82.1382%
vernier = 0.00741577
Source Step = 82.3104%
Source Step = 82.5352%
Source Step = 82.7599%
Source Step = 82.9846%
Source Step = 83.2093%
vernier = 0.0111237
Source Step = 83.4565%
Source Step = 83.7936%
Source Step = 84.1307%
Source Step = 84.4678%
Source Step = 84.8048%
vernier = 0.0166855
Source Step = 85.1588%
Source Step = 85.6644%
Source Step = 86.17%
Source Step = 86.6756%
Source Step = 87.1813%
Source Step = 87.6869%
vernier = 0.0250282
Source Step = 88.4453%
Source Step = 89.2037%
Source Step = 89.9622%
Source Step = 90.7206%
Source Step = 91.479%
vernier = 0.0375423
Source Step = 91.6046%
Source Step = 91.6757%
Source Step = 91.7469%
Source Step = 91.818%
Source Step = 91.8891%
Source Step = 91.9602%
Source Step = 92.0313%
Source Step = 92.1024%
Source Step = 92.1735%
Source Step = 92.2446%
Source Step = 92.3157%
Source Step = 92.3868%
Source Step = 92.4579%
Source Step = 92.529%
Source Step = 92.6001%
Source Step = 92.6712%
Source Step = 92.7423%
Source Step = 92.8134%
Source Step = 92.8845%
Source Step = 92.9556%
Source Step = 93.0267%
Source Step = 93.0978%
Source Step = 93.1689%
Source Step = 93.24%
Source Step = 93.3111%
Source Step = 93.3822%
Source Step = 93.4533%
Source Step = 93.5244%
Source Step = 93.5955%
Source Step = 93.6666%
Source Step = 93.7377%
Source Step = 93.8088%
Source Step = 93.8799%
Source Step = 93.951%
Source Step = 94.0221%
Source Step = 94.0932%
Source Step = 94.1644%
Source Step = 94.2355%
Source Step = 94.3066%
Source Step = 94.3777%
Source Step = 94.4488%
Source Step = 94.5199%
Source Step = 94.591%
Source Step = 94.6621%
Source Step = 94.7332%
Source Step = 94.8043%
Source Step = 94.8754%
Source Step = 94.9465%
Source Step = 95.0176%
Source Step = 95.0887%
Source Step = 95.1598%
Source Step = 95.2309%
Source Step = 95.302%
Source Step = 95.3731%
Source Step = 95.4442%
Source Step = 95.5153%
Source Step = 95.5864%
Source Step = 95.6575%
Source Step = 95.7286%
Source Step = 95.7997%
Source Step = 95.8708%
Source Step = 95.9419%
Source Step = 96.013%
Source Step = 96.0841%
Source Step = 96.1552%
Source Step = 96.2263%
Source Step = 96.2974%
Source Step = 96.3685%
Source Step = 96.4396%
Source Step = 96.5107%
Source Step = 96.5818%
Source Step = 96.653%
Source Step = 96.7241%
Source Step = 96.7952%
Source Step = 96.8663%
Source Step = 96.9374%
Source Step = 97.0085%
Source Step = 97.0796%
Source Step = 97.1507%
Source Step = 97.2218%
Source Step = 97.2929%
Source Step = 97.364%
Source Step = 97.4351%
Source Step = 97.5062%
Source Step = 97.5773%
Source Step = 97.6484%
Source Step = 97.7195%
Source Step = 97.7906%
Source Step = 97.8617%
Source Step = 97.9328%
Source Step = 98.0039%
Source Step = 98.075%
Source Step = 98.1461%
Source Step = 98.2172%
Source Step = 98.2883%
Source Step = 98.3594%
Source Step = 98.4305%
Source Step = 98.5016%
Source Step = 98.5727%
Source Step = 98.6438%
Source Step = 98.7149%
Source Step = 98.786%
Source Step = 98.8571%
Source Step = 98.9282%
Source Step = 98.9993%
Source Step = 99.0705%
Source Step = 99.1416%
Source Step = 99.2127%
Source Step = 99.2838%
Source Step = 99.3549%
Source Step = 99.426%
Source stepping aborted.
Starting source stepping with srcstepmethod=1
Source Step = 3.0303%
Source Step = 33.3333%
Source Step = 63.6364%
Source Step = 88.6364%
Source Step = 91.859%
Source Step = 91.8886%
Source Step = 91.9182%
Source Step = 91.9478%
Source Step = 91.9774%
Source Step = 92.007%
Source Step = 92.0366%
Source Step = 92.0662%
Source Step = 92.0958%
Source Step = 92.1254%
Source Step = 92.1549%
Source Step = 92.1845%
Source Step = 92.2141%
Source Step = 92.2437%
Source Step = 92.2733%
Source Step = 92.3029%
Source Step = 92.3325%
Source Step = 92.3621%
Source Step = 92.3917%
Source Step = 92.4213%
Source Step = 92.4509%
Source Step = 92.4805%
Source Step = 92.5101%
Source Step = 92.5397%
Source Step = 92.5692%
Source Step = 92.5988%
Source Step = 92.6284%
Source Step = 92.658%
Source Step = 92.6876%
Source Step = 92.7172%
Source Step = 92.7468%
Source Step = 92.7764%
Source Step = 92.806%
Source Step = 92.8356%
Source Step = 92.8652%
Source Step = 92.8948%
Source Step = 92.9244%
Source Step = 92.954%
Source Step = 92.9835%
Source Step = 93.0131%
Source Step = 93.0427%
Source Step = 93.0723%
Source Step = 93.1019%
Source Step = 93.1315%
Source Step = 93.1611%
Source Step = 93.1907%
Source Step = 93.2203%
Source Step = 93.2499%
Source Step = 93.2795%
Source Step = 93.3091%
Source Step = 93.3387%
Source Step = 93.3683%
Source Step = 93.3978%
Source Step = 93.4274%
Source Step = 93.457%
Source Step = 93.4866%
Source Step = 93.5162%
Source Step = 93.5458%
Source Step = 93.5754%
Source Step = 93.605%
Source Step = 93.6346%
Source Step = 93.6642%
Source Step = 93.6938%
Source Step = 93.7234%
Source Step = 93.753%
Source Step = 93.7826%
Source Step = 93.8121%
Source Step = 93.8417%
Source Step = 93.8713%
Source Step = 93.9009%
Source Step = 93.9305%
Source Step = 93.9601%
Source Step = 93.9897%
Source Step = 94.0193%
Source Step = 94.0489%
Source Step = 94.0785%
Source Step = 94.1081%
Source Step = 94.1377%
Source Step = 94.1673%
Source Step = 94.1969%
Source Step = 94.2264%
Source Step = 94.256%
Source Step = 94.2856%
Source Step = 94.3152%
Source Step = 94.3448%
Source Step = 94.3744%
Source Step = 94.404%
Source Step = 94.4336%
Source Step = 94.4632%
Source Step = 94.4928%
Source Step = 94.5224%
Source Step = 94.552%
Source Step = 94.5816%
Source Step = 94.6112%
Source Step = 94.6407%
Source Step = 94.6703%
Source Step = 94.6999%
Source Step = 94.7295%
Source Step = 94.7591%
Source Step = 94.7887%
Source Step = 94.8183%
Source Step = 94.8479%
Source Step = 94.8775%
Source Step = 94.9071%
Source Step = 94.9367%
Source Step = 94.9663%
Source Step = 94.9959%
Source Step = 95.0254%
Source Step = 95.055%
Source Step = 95.0846%
Source Step = 95.1142%
Source Step = 95.1438%
Source Step = 95.1734%
Source Step = 95.203%
Source Step = 95.2326%
Source Step = 95.2622%
Source Step = 95.2918%
Source Step = 95.3214%
Source Step = 95.351%
Source Step = 95.3806%
Source Step = 95.4102%
Source Step = 95.4397%
Source Step = 95.4693%
Source Step = 95.4989%
Source Step = 95.5285%
Source Step = 95.5581%
Source Step = 95.5877%
Source Step = 95.6173%
Source Step = 95.6469%
Source Step = 95.6765%
Source Step = 95.7061%
Source Step = 95.7357%
Source Step = 95.7653%
Source Step = 95.7949%
Source Step = 95.8245%
Source Step = 95.854%
Source Step = 95.8836%
Source Step = 95.9132%
Source Step = 95.9428%
Source Step = 95.9724%
Source Step = 96.002%
Source Step = 96.0316%
Source Step = 96.0612%
Source Step = 96.0908%
Source Step = 96.1204%
Source Step = 96.15%
Source Step = 96.1796%
Source Step = 96.2092%
Source Step = 96.2388%
Source Step = 96.2683%
Source Step = 96.2979%
Source Step = 96.3275%
Source Step = 96.3571%
Source Step = 96.3867%
Source Step = 96.4163%
Source Step = 96.4459%
Source Step = 96.4755%
Source Step = 96.5051%
Source Step = 96.5347%
Source Step = 96.5643%
Source Step = 96.5939%
Source Step = 96.6235%
Source Step = 96.6531%
Source Step = 96.6826%
Source Step = 96.7122%
Source Step = 96.7418%
Source Step = 96.7714%
Source Step = 96.801%
Source Step = 96.8306%
Source Step = 96.8602%
Source Step = 96.8898%
Source Step = 96.9194%
Source Step = 96.949%
Source Step = 96.9786%
Source Step = 97.0082%
Source Step = 97.0378%
Source Step = 97.0674%
Source Step = 97.0969%
Source Step = 97.1265%
Source Step = 97.1561%
Source Step = 97.1857%
Source Step = 97.2153%
Source Step = 97.2449%
Source Step = 97.2745%
Source Step = 97.3041%
Source Step = 97.3337%
Source Step = 97.3633%
Source Step = 97.3929%
Source Step = 97.4225%
Source Step = 97.4521%
Source Step = 97.4817%
Source Step = 97.5112%
Source Step = 97.5408%
Source Step = 97.5704%
Source Step = 97.6%
Source Step = 97.6296%
Source Step = 97.6592%
Source Step = 97.6888%
Source Step = 97.7184%
Source Step = 97.748%
Source Step = 97.7776%
Source Step = 97.8072%
Source Step = 97.8368%
Source Step = 97.8664%
Source Step = 97.896%
Source Step = 97.9255%
Source Step = 97.9551%
Source Step = 97.9847%
Source Step = 98.0143%
Source Step = 98.0439%
Source Step = 98.0735%
Source Step = 98.1031%
Source Step = 98.1327%
Source Step = 98.1623%
Source Step = 98.1919%
Source Step = 98.2215%
Source Step = 98.2511%
Source Step = 98.2807%
Source Step = 98.3103%
Source Step = 98.3398%
Source Step = 98.3694%
Source Step = 98.399%
Source Step = 98.4286%
Source Step = 98.4582%
Source Step = 98.4878%
Source Step = 98.5174%
Source Step = 98.547%
Source Step = 98.5766%
Source Step = 98.6062%
Source Step = 98.6358%
Source Step = 98.6654%
Source Step = 98.695%
Source Step = 98.7246%
Source Step = 98.7541%
Source Step = 98.7837%
Source Step = 98.8133%
Source Step = 98.8429%
Source Step = 98.8725%
Source Step = 98.9021%
Source Step = 98.9317%
Source Step = 98.9613%
Source Step = 98.9909%
Source Step = 99.0205%
Source Step = 99.0501%
Source Step = 99.0797%
Source Step = 99.1093%
Source Step = 99.1388%
Source Step = 99.1684%
Source Step = 99.198%
Source Step = 99.2276%
Source Step = 99.2572%
Source Step = 99.2868%
Source Step = 99.3164%
Source Step = 99.346%
Source Step = 99.3756%
Source Step = 99.4052%
Source Step = 99.4348%
Source Step = 99.4644%
Source Step = 99.494%
Source Step = 99.5236%
Source Step = 99.5531%
Source Step = 99.5827%
Source Step = 99.6123%
Source Step = 99.6419%
Source Step = 99.6715%
Source Step = 99.7011%
Source Step = 99.7307%
Source Step = 99.7603%
Source Step = 99.7899%
Source Step = 99.8195%
Source Step = 99.8491%
Source Step = 99.8787%
Source Step = 99.9083%
Source Step = 99.9379%
Source Step = 99.9674%
Source Step = 99.997%
Source Step = 100%
Source Step = 100%
Source Step = 100%
Source Step = 100%
Source Step = 100%
Source Step = 100%
Source Step = 100%
Source Step = 100%
Source Step = 100%
Source Step = 100%
Source Step = 100%
Source Step = 100%
Source Step = 100%
Source Step = 100%
Source Step = 100%
Source Step = 100%
Source Step = 100%
Source Step = 100%
Source Step = 100%
Source Step = 100%
Source Step = 100%
Source Step = 100%
Source Step = 100%
Source Step = 100%
Source Step = 100%
Source Step = 100%
Source Step = 100%
Source Step = 100%
Source Step = 100%
Source Step = 100%
Source Step = 100%
Source Step = 100%
Source Step = 100%
Source Step = 100%
Source Step = 100%
Source Step = 100%
Source Step = 100%
Source Step = 100%
Source Step = 100%
Source Step = 100%
Source Step = 100%
Source Step = 100%
Source Step = 100%
Source Step = 100%
Source Step = 100%
Source Step = 100%
Source Step = 100%
Source Step = 100%
Source Step = 100%
Source Step = 100%
Source Step = 100%
Source Step = 100%
Source Step = 100%
Source Step = 100%
Source Step = 100%
Source Step = 100%
Source Step = 100%
Source Step = 100%
Source Step = 100%
Source Step = 100%
Source Step = 100%
Source Step = 100%
Source Step = 100%
Source Step = 100%
Source Step = 100%
Source Step = 100%
Source Step = 100%
Source Step = 100%
Source Step = 100%
Source Step = 100%
Source Step = 100%
Source Step = 100%
Source Step = 100%
Source Step = 100%
Source Step = 100%
Source Step = 100%
Source Step = 100%
Source Step = 100%
Source Step = 100%
Source Step = 100%
Source Step = 100%
Source Step = 100%
Source Step = 100%
Source Step = 100%
Source Step = 100%
Source Step = 100%
Source Step = 100%
Source Step = 100%
Source Step = 100%
Source Step = 100%
Source Step = 100%
Source Step = 100%
Source Step = 100%
Source Step = 100%
Source Step = 100%
Source Step = 100%
Source Step = 100%
Source Step = 100%
Source Step = 100%
Source Step = 100%
Source Step = 100%
Source Step = 100%
Source Step = 100%
Source Step = 100%
Source Step = 100%
Source Step = 100%
Source Step = 100%
Source Step = 100%
Source Step = 100%
Source Step = 100%
Source Step = 100%
Source Step = 100%
Source Step = 100%
Source Step = 100%
Source Step = 100%
Source Step = 100%
Source Step = 100%
Source Step = 100%
Source Step = 100%
Source Step = 100%
Source Step = 100%
Source Step = 100%
Source Step = 100%
Source Step = 100%
Source Step = 100%
Source Step = 100%
Source Step = 100%
Source Step = 100%
Source Step = 100%
Source Step = 100%
Source Step = 100%
Source Step = 100%
Source Step = 100%
Source Step = 100%
Source Step = 100%
Source Step = 100%
Source Step = 100%
Source Step = 100%
Source Step = 100%
Source Step = 100%
Source Step = 100%
Source Step = 100%
Source Step = 100%
Source Step = 100%
Source Step = 100%
Source Step = 100%
Source Step = 100%
Source Step = 100%
Source Step = 100%
Source Step = 100%
Source Step = 100%
Source Step = 100%
Source Step = 100%
Source Step = 100%
Source Step = 100%
Source Step = 100%
Source Step = 100%
Source Step = 100%
Source Step = 100%
Source Step = 100%
Source Step = 100%
Source Step = 100%
Source Step = 100%
Source Step = 100%
Source Step = 100%
Source Step = 100%
Source Step = 100%
Source Step = 100%
Source Step = 100%
Source Step = 100%
Source Step = 100%
Source Step = 100%
Source Step = 100%
Source Step = 100%
Source Step = 100%
Source Step = 100%
Source Step = 100%
Source Step = 100%
Source Step = 100%
Source Step = 100%
Source Step = 100%
Source Step = 100%
Source Step = 100%
Source Step = 100%
Source Step = 100%
Source Step = 100%
Source Step = 100%
Source Step = 100%
Source Step = 100%
Source Step = 100%
Source Step = 100%
Source Step = 100%
Source Step = 100%
Source Step = 100%
Source Step = 100%
Source Step = 100%
Source Step = 100%
Source Step = 100%
Source Step = 100%
Source Step = 100%
Source Step = 100%
Source Step = 100%
Source Step = 100%
Source Step = 100%
Source Step = 100%
Source Step = 100%
Source Step = 100%
Source Step = 100%
Source Step = 100%
Source Step = 100%
Source Step = 100%
Source Step = 100%
Source Step = 100%
Source Step = 100%
Source Step = 100%
Source Step = 100%
Source Step = 100%
Source Step = 100%
Source Step = 100%
Source Step = 100%
Source Step = 100%
Source Step = 100%
Source Step = 100%
Source Step = 100%
Source Step = 100%
Source Step = 100%
Source Step = 100%
Source Step = 100%
Source Step = 100%
Source Step = 100%
Source Step = 100%
Source Step = 100%
Source Step = 100%
Source Step = 100%
Source Step = 100%
Source Step = 100%
Source Step = 100%
Source Step = 100%
Source Step = 100%
Source Step = 100%
Source Step = 100%
Source Step = 100%
Source Step = 100%
Source Step = 100%
Source Step = 100%
Source Step = 100%
Source Step = 100%
Source Step = 100%
Source Step = 100%
Source Step = 100%
Source Step = 100%
Source Step = 100%
Source Step = 100%
Source Step = 100%
Source Step = 100%
Source Step = 100%
Source Step = 100%
Source Step = 100%
Source Step = 100%
Source Step = 100%
Source Step = 100%
Source Step = 100%
Source Step = 100%
Source Step = 100%
Source Step = 100%
Source Step = 100%
Source Step = 100%
Source Step = 100%
Source Step = 100%
Source Step = 100%
Source Step = 100%
Source Step = 100%
Source Step = 100%
Source Step = 100%
Source Step = 100%
Source Step = 100%
Source Step = 100%
Source Step = 100%
Source Step = 100%
Source Step = 100%
Source Step = 100%
Source Step = 100%
Source Step = 100%
Source Step = 100%
Source Step = 100%
Source Step = 100%
Source Step = 100%
Source Step = 100%
Source Step = 100%
Source Step = 100%
Source Step = 100%
Source Step = 100%
Source Step = 100%
Source Step = 100%
Source Step = 100%
Source Step = 100%
Source Step = 100%
Source Step = 100%
Source Step = 100%
Source Step = 100%
Source Step = 100%
Source Step = 100%
Source Step = 100%
Source Step = 100%
Source Step = 100%
Source Step = 100%
Source Step = 100%
Source Step = 100%
Source Step = 100%
Source Step = 100%
Source Step = 100%
Source Step = 100%
Source Step = 100%
Source Step = 100%
Source Step = 100%
Source Step = 100%
Source Step = 100%
Source Step = 100%
Source Step = 100%
Source Step = 100%
Source Step = 100%
Source Step = 100%
Source Step = 100%
Source Step = 100%
Source Step = 100%
Source Step = 100%
Source Step = 100%
Source Step = 100%
Source Step = 100%
Source Step = 100%
Source Step = 100%
Source Step = 100%
Source Step = 100%
Source Step = 100%
Source Step = 100%
Source Step = 100%
Source Step = 100%
Source Step = 100%
Source Step = 100%
Source Step = 100%
Source Step = 100%
Source Step = 100%
Source Step = 100%
Source Step = 100%
Source Step = 100%
Source Step = 100%
Source Step = 100%
Source Step = 100%
Source Step = 100%
Source Step = 100%
Source Step = 100%
Source Step = 100%
Source Step = 100%
Source Step = 100%
Source Step = 100%
Source Step = 100%
Source Step = 100%
Source Step = 100%
Source Step = 100%
Source Step = 100%
Source Step = 100%
Source Step = 100%
Source Step = 100%
Source Step = 100%
Source Step = 100%
Source Step = 100%
Source Step = 100%
Source Step = 100%
Source Step = 100%
Source Step = 100%
Source Step = 100%
Source Step = 100%
Source Step = 100%
Source Step = 100%
Source Step = 100%
Source Step = 100%
Source Step = 100%
Source Step = 100%
Source Step = 100%
Source Step = 100%
Source Step = 100%
Source Step = 100%
Source Step = 100%
Source Step = 100%
Source Step = 100%
Source Step = 100%
Source Step = 100%
Source Step = 100%
Source Step = 100%
Source Step = 100%
Source Step = 100%
Source Step = 100%
Source Step = 100%
Source Step = 100%
Source Step = 100%
Source Step = 100%
Source Step = 100%
Source Step = 100%
Source Step = 100%
Source Step = 100%
Source Step = 100%
Source Step = 100%
Source Step = 100%
Source Step = 100%
Source Step = 100%
Source Step = 100%
Source Step = 100%
Source Step = 100%
Source Step = 100%
Source Step = 100%
Source Step = 100%
Source Step = 100%
Source Step = 100%
Source Step = 100%
Source Step = 100%
Source Step = 100%
Source Step = 100%
Source Step = 100%
Source Step = 100%
Source Step = 100%
Source Step = 100%
Source Step = 100%
Source Step = 100%
Source Step = 100%
Source Step = 100%
Source Step = 100%
Source Step = 100%
Source Step = 100%
Source Step = 100%
Source Step = 100%
Source Step = 100%
Source Step = 100%
Source Step = 100%
Source Step = 100%
Source Step = 100%
Source Step = 100%
Source Step = 100%
Source Step = 100%
Source Step = 100%
Source Step = 100%
Source Step = 100%
Source Step = 100%
Source Step = 100%
Source Step = 100%
Source Step = 100%
Source Step = 100%
Source Step = 100%
Source Step = 100%
Source Step = 100%
Source Step = 100%
Source Step = 100%
Source Step = 100%
Source Step = 100%
Source Step = 100%
Source Step = 100%
Source Step = 100%
Source Step = 100%
Source Step = 100%
Source Step = 100%
Source Step = 100%
Source Step = 100%
Source Step = 100%
Source Step = 100%
Source Step = 100%
Source Step = 100%
Source Step = 100%
Source Step = 100%
Source Step = 100%
Source Step = 100%
Source Step = 100%
Source Step = 100%
Source Step = 100%
Source Step = 100%
Source Step = 100%
Source Step = 100%
Source Step = 100%
Source Step = 100%
Source Step = 100%
Source Step = 100%
Source Step = 100%
Source Step = 100%
Source Step = 100%
Source Step = 100%
Source Step = 100%
Source Step = 100%
Source Step = 100%
Source Step = 100%
Source Step = 100%
Source Step = 100%
Source Step = 100%
Source Step = 100%
Source Step = 100%
Source Step = 100%
Source Step = 100%
Source Step = 100%
Source Step = 100%
Source Step = 100%
Source Step = 100%
Source Step = 100%
Source Step = 100%
Source Step = 100%
Source Step = 100%
Source Step = 100%
Source Step = 100%
Source Step = 100%
Source Step = 100%
Source Step = 100%
Source Step = 100%
Source Step = 100%
Source Step = 100%
Source Step = 100%
Source Step = 100%
Source Step = 100%
Source Step = 100%
Source Step = 100%
Source Step = 100%
Source Step = 100%
Source Step = 100%
Source Step = 100%
Source Step = 100%
Source Step = 100%
Source Step = 100%
Source Step = 100%
Source Step = 100%
Source Step = 100%
Source Step = 100%
Source Step = 100%
Source Step = 100%
Source Step = 100%
Source Step = 100%
Source Step = 100%
Source Step = 100%
Source Step = 100%
Source Step = 100%
Source Step = 100%
Source Step = 100%
Source Step = 100%
Source Step = 100%
Source Step = 100%
Source Step = 100%
Source Step = 100%
Source Step = 100%
Source Step = 100%
Source Step = 100%
Source Step = 100%
Source Step = 100%
Source Step = 100%
Source Step = 100%
Source Step = 100%
Source Step = 100%
Source Step = 100%
Source Step = 100%
Source Step = 100%
Source Step = 100%
Source Step = 100%
Source Step = 100%
Source Step = 100%
Source Step = 100%
Source Step = 100%
Source Step = 100%
Source Step = 100%
Source Step = 100%
Source Step = 100%
Source Step = 100%
Source Step = 100%
Source Step = 100%
Source Step = 100%
Source Step = 100%
Source Step = 100%
Source Step = 100%
Source Step = 100%
Source Step = 100%
Source Step = 100%
Source Step = 100%
Source Step = 100%
Source Step = 100%
Source Step = 100%
Source Step = 100%
Source Step = 100%
Source Step = 100%
Source Step = 100%
Source Step = 100%
Source Step = 100%
Source Step = 100%
Source Step = 100%
Source Step = 100%
Source Step = 100%
Source Step = 100%
Source Step = 100%
Source Step = 100%
Source Step = 100%
Source Step = 100%
Source Step = 100%
Source Step = 100%
Source Step = 100%
Source Step = 100%
Source Step = 100%
Source Step = 100%
Source Step = 100%
Source Step = 100%
Source Step = 100%
Source Step = 100%
Source Step = 100%
Source Step = 100%
Source Step = 100%
Source Step = 100%
Source Step = 100%
Source Step = 100%
Source Step = 100%
Source Step = 100%
Source Step = 100%
Source Step = 100%
Source Step = 100%
Source Step = 100%
Source Step = 100%
Source Step = 100%
Source Step = 100%
Source Step = 100%
Source Step = 100%
Source Step = 100%
Source Step = 100%
Source Step = 100%
Source Step = 100%
Source Step = 100%
Source Step = 100%
Source Step = 100%
Source Step = 100%
Source Step = 100%
Source Step = 100%
Source Step = 100%
Source Step = 100%
Source Step = 100%
Source Step = 100%
Source Step = 100%
Source Step = 100%
Source Step = 100%
Source Step = 100%
Source Step = 100%
Source Step = 100%
Source Step = 100%
Source Step = 100%
Source Step = 100%
Source Step = 100%
Source Step = 100%
Source Step = 100%
Source Step = 100%
Source Step = 100%
Source Step = 100%
Source Step = 100%
Source Step = 100%
Source Step = 100%
Source Step = 100%
Source Step = 100%
Source Step = 100%
Source Step = 100%
Source Step = 100%
Source Step = 100%
Source Step = 100%
Source Step = 100%
Source Step = 100%
Source Step = 100%
Source Step = 100%
Source Step = 100%
Source Step = 100%
Source Step = 100%
Source Step = 100%
Source Step = 100%
Source Step = 100%
Source Step = 100%
Source Step = 100%
Source Step = 100%
Source Step = 100%
Source Step = 100%
Source Step = 100%
Source Step = 100%
Source Step = 100%
Source Step = 100%
Source Step = 100%
Source Step = 100%
Source Step = 100%
Source Step = 100%
Source Step = 100%
Source Step = 100%
Source Step = 100%
Source Step = 100%
Source Step = 100%
Source Step = 100%
Source Step = 100%
Source Step = 100%
Source Step = 100%
Source Step = 100%
Source Step = 100%
Source Step = 100%
Source Step = 100%
Source Step = 100%
Source Step = 100%
Source Step = 100%
Source Step = 100%
Source Step = 100%
Source Step = 100%
Source Step = 100%
Source Step = 100%
Source Step = 100%
Source Step = 100%
Source Step = 100%
Source Step = 100%
Source Step = 100%
Source Step = 100%
Source Step = 100%
Source Step = 100%
Source Step = 100%
Source Step = 100%
[...]
Source Step = 73.3414%
Source Step = 73.8471%
Source Step = 74.3527%
Source Step = 74.8583%
Source Step = 75.3639%
vernier = 0.0250282
Source Step = 76.0718%
Source Step = 76.8302%
Source Step = 77.5887%
Source Step = 78.3471%
Source Step = 79.1055%
vernier = 0.0375423
Source Step = 80.1294%
Source Step = 81.267%
Source Step = 82.4047%
Source Step = 83.5423%
Source Step = 84.68%
vernier = 0.0563135
Source Step = 86.1589%
Source Step = 87.8654%
Source Step = 89.5719%
Source Step = 91.2783%
Source Step = 92.9848%
vernier = 0.0140784
Source Step = 92.8355%
Source Step = 92.8622%
Source Step = 92.8888%
Source Step = 92.9155%
Source Step = 92.9421%
Source Step = 92.9688%
Source stepping aborted.
Starting source stepping with srcstepmethod=1
Source Step = 3.0303%
Source Step = 33.3333%
Source Step = 63.6364%
vernier = 0.25
Source Step = 63.5417%
Source Step = 63.6097%
Source Step = 63.6393%
Source Step = 63.6689%
Source Step = 63.6985%
Source Step = 63.7281%
vernier = 0.00146484
Source Step = 63.7651%
Source Step = 63.8095%
Source Step = 63.8539%
Source Step = 63.8983%
Source Step = 63.9426%
vernier = 0.00219727
Source Step = 63.9959%
Source Step = 64.0625%
Source Step = 64.1291%
Source Step = 64.1957%
Source Step = 64.2623%
vernier = 0.0032959
Source Step = 64.3388%
Source Step = 64.4387%
Source Step = 64.5386%
Source Step = 64.6384%
Source Step = 64.7383%
vernier = 0.00494385
Source Step = 64.8482%
Source Step = 64.998%
Source Step = 65.1478%
Source Step = 65.2976%
Source Step = 65.4474%
vernier = 0.00741577
Source Step = 65.6047%
Source Step = 65.8295%
Source Step = 66.0542%
Source Step = 66.2789%
Source Step = 66.5036%
Source Step = 66.7283%
vernier = 0.0111237
Source Step = 67.0654%
Source Step = 67.4025%
Source Step = 67.7396%
Source Step = 68.0767%
Source Step = 68.4138%
vernier = 0.0166855
Source Step = 68.9025%
Source Step = 69.4081%
Source Step = 69.9138%
Source Step = 70.4194%
Source Step = 70.925%
vernier = 0.0250282
Source Step = 71.6329%
Source Step = 72.3913%
Source Step = 73.1497%
Source Step = 73.9082%
Source Step = 74.6666%
vernier = 0.0375423
Source Step = 75.6905%
Source Step = 76.8281%
Source Step = 77.9658%
Source Step = 79.1034%
Source Step = 80.2411%
vernier = 0.0563135
Source Step = 81.72%
Source Step = 83.4265%
Source Step = 85.1329%
Source Step = 86.8394%
Source Step = 88.5459%
Source Step = 89.2071%
Source Step = 89.2551%
Source Step = 89.2818%
Source Step = 89.3085%
Source Step = 89.3351%
Source Step = 89.3618%
vernier = 0.00131985
Source Step = 89.3925%
Source Step = 89.4325%
Source Step = 89.4724%
Source Step = 89.5124%
Source Step = 89.5524%
vernier = 0.00197977
Source Step = 89.5964%
Source Step = 89.6564%
Source Step = 89.7164%
Source Step = 89.7764%
Source Step = 89.8364%
vernier = 0.00296966
Source Step = 89.8994%
Source Step = 89.9894%
Source Step = 90.0794%
Source Step = 90.1694%
Source Step = 90.2594%
Source Step = 90.3493%
Source Step = 90.4393%
Source Step = 90.5293%
Source Step = 90.6193%
Source Step = 90.7093%
Source Step = 90.7993%
Source Step = 90.8893%
Source Step = 90.9793%
Source Step = 91.0693%
Source Step = 91.1593%
Source Step = 91.2492%
Source Step = 91.3392%
Source Step = 91.4292%
Source Step = 91.5192%
Source Step = 91.6092%
Source Step = 91.6992%
Source Step = 91.7892%
Source Step = 91.8792%
Source Step = 91.9692%
Source Step = 92.0591%
Source Step = 92.1491%
Source Step = 92.2391%
Source Step = 92.3291%
Source Step = 92.4191%
Source Step = 92.5091%
Source Step = 92.5991%
Source Step = 92.6891%
Source Step = 92.7791%
Source Step = 92.8691%
Source Step = 92.959%
Source Step = 93.049%
Source Step = 93.139%
Source Step = 93.229%
Source Step = 93.319%
Source Step = 93.409%
Source Step = 93.499%
Source Step = 93.589%
Source Step = 93.679%
Source Step = 93.769%
Source Step = 93.8589%
Source Step = 93.9489%
Source Step = 94.0389%
Source Step = 94.1289%
Source Step = 94.2189%
Source Step = 94.3089%
Source Step = 94.3989%
Source Step = 94.4889%
Source Step = 94.5789%
Source Step = 94.6688%
Source Step = 94.7588%
Source Step = 94.8488%
Source Step = 94.9388%
Source Step = 95.0288%
Source Step = 95.1188%
Source Step = 95.2088%
Source Step = 95.2988%
Source Step = 95.3888%
Source Step = 95.4788%
Source Step = 95.5687%
Source Step = 95.6587%
Source Step = 95.7487%
Source Step = 95.8387%
Source Step = 95.9287%
Source Step = 96.0187%
Source Step = 96.1087%
Source Step = 96.1987%
Source Step = 96.2887%
Source Step = 96.3787%
Source Step = 96.4686%
Source Step = 96.5586%
Source Step = 96.6486%
Source Step = 96.7386%
Source Step = 96.8286%
Source Step = 96.9186%
Source Step = 97.0086%
Source Step = 97.0986%
Source Step = 97.1886%
Source Step = 97.2785%
Source Step = 97.3685%
Source Step = 97.4585%
Source Step = 97.5485%
Source Step = 97.6385%
Source Step = 97.7285%
Source Step = 97.8185%
Source Step = 97.9085%
Source Step = 97.9985%
Source Step = 98.0885%
Source Step = 98.1784%
Source Step = 98.2684%
Source Step = 98.3584%
Source Step = 98.4484%
Source Step = 98.5384%
Source Step = 98.6284%
Source Step = 98.7184%
Source Step = 98.8084%
Source Step = 98.8984%
Source Step = 98.9884%
Source Step = 99.0783%
Source Step = 99.1683%
Source Step = 99.2583%
Source Step = 99.3483%
Source Step = 99.4383%
Source stepping aborted.
Pseudo Transient failed in finding the operating point at 5.39817 s.
Direct Newton iteration failed to find .op point.  (Use ".option noopiter" to skip.)
Starting Gmin stepping
Gmin = 10
Gmin = 1.07374
Gmin = 0.115292
Gmin = 0.0123794
Gmin = 0.00132923
Gmin = 0.000142725
Gmin = 1.5325e-005
Gmin = 1.6455e-006
Gmin = 1.76685e-007
Gmin = 1.89714e-008
Gmin = 2.03704e-009
Gmin = 2.18725e-010
Gmin = 2.34854e-011
vernier = 0.5
Gmin = 5.40494e-012
vernier = 0.666667
vernier = 0.888888
Gmin = 1.13372e-012
vernier = 0.444444
vernier = 0.222222
vernier = 0.111111
vernier = 0.0555555
Gmin = 7.48539e-013
vernier = 0.0277778
vernier = 0.0138889
vernier = 0.00694444
vernier = 0.00347222
vernier = 0.00173611
vernier = 0.000868055
vernier = 0.000434028
Gmin = 0
Gmin = 0
Gmin stepping failed

Starting source stepping with srcstepmethod=0
Source Step = 3.0303%
Source Step = 33.3333%
Source Step = 63.6364%
Source Step = 71.0701%
Source Step = 71.1914%
Source Step = 71.221%
Source Step = 71.2506%
Source Step = 71.2802%
Source Step = 71.3098%
Source Step = 71.3394%
vernier = 0.00146484
Source Step = 71.3838%
Source Step = 71.4281%
Source Step = 71.4725%
Source Step = 71.5169%
Source Step = 71.5613%
vernier = 0.00219727
Source Step = 71.6257%
Source Step = 71.6923%
Source Step = 71.7588%
Source Step = 71.8254%
Source Step = 71.892%
vernier = 0.0032959
Source Step = 71.9852%
Source Step = 72.0851%
Source Step = 72.185%
Source Step = 72.2849%
Source Step = 72.3847%
vernier = 0.00494385
Source Step = 72.5196%
Source Step = 72.6694%
Source Step = 72.8192%
Source Step = 72.969%
Source Step = 73.1188%
vernier = 0.00741577
Source Step = 73.3136%
Source Step = 73.5383%
Source Step = 73.763%
Source Step = 73.9877%
Source Step = 74.2125%
vernier = 0.0111237
Source Step = 74.4934%
Source Step = 74.8304%
Source Step = 75.1675%
Source Step = 75.5046%
Source Step = 75.8417%
vernier = 0.0166855
Source Step = 76.2462%
Source Step = 76.7518%
Source Step = 77.2574%
Source Step = 77.763%
Source Step = 78.2687%
vernier = 0.0250282
Source Step = 78.8501%
Source Step = 79.6086%
Source Step = 80.367%
Source Step = 81.1254%
Source Step = 81.8839%
vernier = 0.0375423
Source Step = 82.7181%
Source Step = 83.8558%
Source Step = 84.9934%
Source Step = 86.1311%
Source Step = 87.2687%
vernier = 0.0563135
Source Step = 88.4632%
Source Step = 90.1697%
Source Step = 91.8762%
Source Step = 92.7747%
Source Step = 92.8014%
Source Step = 92.8281%
Source Step = 92.8547%
Source Step = 92.8814%
Source Step = 92.9081%
Source stepping aborted.
Starting source stepping with srcstepmethod=1
Source Step = 3.0303%
Source Step = 33.3333%
Source Step = 53.7879%
Source Step = 54.5099%
Source Step = 54.5366%
Source Step = 54.5662%
Source Step = 54.5958%
Source Step = 54.6254%
Source Step = 54.6549%
vernier = 0.00146484
Source Step = 54.6949%
Source Step = 54.7393%
Source Step = 54.7837%
Source Step = 54.8281%
Source Step = 54.8725%
vernier = 0.00219727
Source Step = 54.9302%
Source Step = 54.9967%
Source Step = 55.0633%
Source Step = 55.1299%
Source Step = 55.1965%
vernier = 0.0032959
Source Step = 55.2797%
Source Step = 55.3796%
Source Step = 55.4795%
Source Step = 55.5794%
Source Step = 55.6792%
vernier = 0.00494385
Source Step = 55.7991%
Source Step = 55.9489%
Source Step = 56.0987%
Source Step = 56.2485%
Source Step = 56.3983%
vernier = 0.00741577
Source Step = 56.5706%
Source Step = 56.7953%
Source Step = 57.0201%
Source Step = 57.2448%
Source Step = 57.4695%
vernier = 0.0111237
Source Step = 57.7167%
Source Step = 58.0538%
Source Step = 58.3909%
Source Step = 58.7279%
Source Step = 59.065%
vernier = 0.0166855
Source Step = 59.4189%
Source Step = 59.9246%
Source Step = 60.4302%
Source Step = 60.9358%
Source Step = 61.4414%
Source Step = 61.9471%
vernier = 0.0250282
Source Step = 62.7055%
Source Step = 63.4639%
Source Step = 64.2223%
Source Step = 64.9808%
Source Step = 65.7392%
vernier = 0.0375423
Source Step = 66.8389%
Source Step = 67.9766%
Source Step = 69.1142%
Source Step = 70.2519%
Source Step = 71.3895%
vernier = 0.0563135
Source Step = 72.9822%
Source Step = 74.6887%
Source Step = 76.3952%
Source Step = 78.1016%
Source Step = 79.8081%
vernier = 0.0844703
Source Step = 82.1118%
Source Step = 84.6715%
Source Step = 87.2313%
Source Step = 89.791%
Source Step = 91.9027%
vernier = 0.00527939
Source Step = 91.8747%
Source Step = 91.9147%
Source Step = 91.9547%
Source Step = 91.9947%
Source Step = 92.0347%
Source Step = 92.0747%
Source Step = 92.1147%
Source Step = 92.1547%
Source Step = 92.1947%
Source Step = 92.2347%
Source Step = 92.2747%
Source Step = 92.3147%
Source Step = 92.3547%
Source Step = 92.3947%
Source Step = 92.4347%
Source Step = 92.4746%
Source Step = 92.5146%
Source Step = 92.5546%
Source Step = 92.5946%
Source Step = 92.6346%
Source Step = 92.6746%
Source Step = 92.7146%
Source Step = 92.7546%
Source Step = 92.7946%
Source Step = 92.8346%
Source Step = 92.8746%
Source Step = 92.9146%
Source Step = 92.9546%
Source Step = 92.9946%
Source Step = 93.0346%
Source Step = 93.0746%
Source Step = 93.1146%
Source Step = 93.1546%
Source Step = 93.1946%
Source Step = 93.2346%
Source Step = 93.2746%
Source Step = 93.3146%
Source Step = 93.3545%
Source Step = 93.3945%
Source Step = 93.4345%
Source Step = 93.4745%
Source Step = 93.5145%
Source Step = 93.5545%
Source Step = 93.5945%
Source Step = 93.6345%
Source Step = 93.6745%
Source Step = 93.7145%
Source Step = 93.7545%
Source Step = 93.7945%
Source Step = 93.8345%
Source Step = 93.8745%
Source Step = 93.9145%
Source Step = 93.9545%
Source Step = 93.9945%
Source Step = 94.0345%
Source Step = 94.0745%
Source Step = 94.1145%
Source Step = 94.1545%
Source Step = 94.1945%
Source Step = 94.2344%
Source Step = 94.2744%
Source Step = 94.3144%
Source Step = 94.3544%
Source Step = 94.3944%
Source Step = 94.4344%
Source Step = 94.4744%
Source Step = 94.5144%
Source Step = 94.5544%
Source Step = 94.5944%
Source Step = 94.6344%
Source Step = 94.6744%
Source Step = 94.7144%
Source Step = 94.7544%
Source Step = 94.7944%
Source Step = 94.8344%
Source Step = 94.8744%
Source Step = 94.9144%
Source Step = 94.9544%
Source Step = 94.9944%
Source Step = 95.0344%
Source Step = 95.0743%
Source Step = 95.1143%
Source Step = 95.1543%
Source Step = 95.1943%
Source Step = 95.2343%
Source Step = 95.2743%
Source Step = 95.3143%
Source Step = 95.3543%
Source Step = 95.3943%
Source Step = 95.4343%
Source Step = 95.4743%
Source Step = 95.5143%
Source Step = 95.5543%
Source Step = 95.5943%
Source Step = 95.6343%
Source Step = 95.6743%
Source Step = 95.7143%
Source Step = 95.7543%
Source Step = 95.7943%
Source Step = 95.8343%
Source Step = 95.8743%
Source Step = 95.9143%
Source Step = 95.9542%
Source Step = 95.9942%
Source Step = 96.0342%
Source Step = 96.0742%
Source Step = 96.1142%
Source Step = 96.1542%
Source Step = 96.1942%
Source Step = 96.2342%
Source Step = 96.2742%
Source Step = 96.3142%
Source Step = 96.3542%
Source Step = 96.3942%
Source Step = 96.4342%
Source Step = 96.4742%
Source Step = 96.5142%
Source Step = 96.5542%
Source Step = 96.5942%
Source Step = 96.6342%
Source Step = 96.6742%
Source Step = 96.7142%
Source Step = 96.7542%
Source Step = 96.7942%
Source Step = 96.8341%
Source Step = 96.8741%
Source Step = 96.9141%
Source Step = 96.9541%
Source Step = 96.9941%
Source Step = 97.0341%
Source Step = 97.0741%
Source Step = 97.1141%
Source Step = 97.1541%
Source Step = 97.1941%
Source Step = 97.2341%
Source Step = 97.2741%
Source Step = 97.3141%
Source Step = 97.3541%
Source Step = 97.3941%
Source Step = 97.4341%
Source Step = 97.4741%
Source Step = 97.5141%
Source Step = 97.5541%
Source Step = 97.5941%
Source Step = 97.6341%
Source Step = 97.6741%
Source Step = 97.714%
Source Step = 97.754%
Source Step = 97.794%
Source Step = 97.834%
Source Step = 97.874%
Source Step = 97.914%
Source Step = 97.954%
Source Step = 97.994%
Source Step = 98.034%
Source Step = 98.074%
Source Step = 98.114%
Source Step = 98.154%
Source Step = 98.194%
Source Step = 98.234%
Source Step = 98.274%
Source Step = 98.314%
Source Step = 98.354%
Source Step = 98.394%
Source Step = 98.434%
Source Step = 98.474%
Source Step = 98.514%
Source Step = 98.5539%
Source Step = 98.5939%
Source Step = 98.6339%
Source Step = 98.6739%
Source Step = 98.7139%
Source Step = 98.7539%
Source Step = 98.7939%
Source Step = 98.8339%
Source Step = 98.8739%
Source Step = 98.9139%
Source Step = 98.9539%
Source Step = 98.9939%
Source Step = 99.0339%
Source Step = 99.0739%
Source Step = 99.1139%
Source Step = 99.1539%
Source Step = 99.1939%
Source Step = 99.2339%
Source Step = 99.2739%
Source Step = 99.3139%
Source Step = 99.3539%
Source Step = 99.3939%
Source Step = 99.4338%
Source Step = 99.4738%
Source Step = 99.5138%
Source Step = 99.5538%
Source Step = 99.5938%
Source Step = 99.6338%
Source Step = 99.6738%
Source Step = 99.7138%
Source Step = 99.7538%
Source Step = 99.7938%
Source Step = 99.8338%
Source Step = 99.8738%
Source Step = 99.9138%
Source Step = 99.9538%
Source Step = 99.9938%
Source Step = 100%
Source Step = 100%
Source Step = 100%
Source Step = 100%
Source Step = 100%
Source Step = 100%
Source Step = 100%
Source Step = 100%
Source Step = 100%
Source Step = 100%
Source Step = 100%
Source Step = 100%
Source Step = 100%
Source Step = 100%
Source Step = 100%
Source Step = 100%
Source Step = 100%
Source Step = 100%
Source Step = 100%
Source Step = 100%
Source Step = 100%
Source Step = 100%
Source Step = 100%
Source Step = 100%
Source Step = 100%
Source Step = 100%
Source Step = 100%
Source Step = 100%
Source Step = 100%
Source Step = 100%
Source Step = 100%
Source Step = 100%
Source Step = 100%
Source Step = 100%
Source Step = 100%
Source Step = 100%
Source Step = 100%
Source Step = 100%
Source Step = 100%
Source Step = 100%
Source Step = 100%
Source Step = 100%
Source Step = 100%
Source Step = 100%
Source Step = 100%
Source Step = 100%
Source Step = 100%
Source Step = 100%
Source Step = 100%
Source Step = 100%
Source Step = 100%
Source Step = 100%
Source Step = 100%
Source Step = 100%
Source Step = 100%
Source Step = 100%
Source Step = 100%
Source Step = 100%
Source Step = 100%
Source Step = 100%
Source Step = 100%
Source Step = 100%
Source Step = 100%
Source Step = 100%
Source Step = 100%
Source Step = 100%
Source Step = 100%
Source Step = 100%
Source Step = 100%
Source Step = 100%
Source Step = 100%
Source Step = 100%
Source Step = 100%
Source Step = 100%
Source Step = 100%
Source Step = 100%
Source Step = 100%
Source Step = 100%
Source Step = 100%
Source Step = 100%
Source Step = 100%
Source Step = 100%
Source Step = 100%
Source Step = 100%
Source Step = 100%
Source Step = 100%
Source Step = 100%
Source Step = 100%
Source Step = 100%
Source Step = 100%
Source Step = 100%
Source Step = 100%
Source Step = 100%
Source Step = 100%
Source Step = 100%
Source Step = 100%
Source Step = 100%
Source Step = 100%
Source Step = 100%
Source Step = 100%
Source Step = 100%
Source Step = 100%
Source Step = 100%
Source Step = 100%
Source Step = 100%
Source Step = 100%
Source Step = 100%
Source Step = 100%
Source Step = 100%
Source Step = 100%
Source Step = 100%
Source Step = 100%
Source Step = 100%
Source Step = 100%
Source Step = 100%
Source Step = 100%
Source Step = 100%
Source Step = 100%
Source Step = 100%
Source Step = 100%
Source Step = 100%
Source Step = 100%
Source Step = 100%
Source Step = 100%
Source Step = 100%
Source Step = 100%
Source Step = 100%
Source Step = 100%
Source Step = 100%
Source Step = 100%
Source Step = 100%
Source Step = 100%
Source Step = 100%
Source Step = 100%
Source Step = 100%
Source Step = 100%
Source Step = 100%
Source Step = 100%
Source Step = 100%
Source Step = 100%
Source Step = 100%
Source Step = 100%
Source Step = 100%
Source Step = 100%
Source Step = 100%
Source Step = 100%
Source Step = 100%
Source Step = 100%
Source Step = 100%
Source Step = 100%
Source Step = 100%
Source Step = 100%
Source Step = 100%
Source Step = 100%
Source Step = 100%
Source Step = 100%
Source Step = 100%
Source Step = 100%
Source Step = 100%
Source Step = 100%
Source Step = 100%
Source Step = 100%
Source Step = 100%
Source Step = 100%
Source Step = 100%
Source Step = 100%
Source Step = 100%
Source Step = 100%
Source Step = 100%
Source Step = 100%
Source Step = 100%
Source Step = 100%
Source Step = 100%
Source Step = 100%
Source Step = 100%
Source Step = 100%
Source Step = 100%
Source Step = 100%
Source Step = 100%
Source Step = 100%
Source Step = 100%
Source Step = 100%
Source Step = 100%
Source Step = 100%
Source Step = 100%
Source Step = 100%
Source Step = 100%
Source Step = 100%
Source Step = 100%
Source Step = 100%
Source Step = 100%
Source Step = 100%
Source Step = 100%
Source Step = 100%
Source Step = 100%
Source Step = 100%
Source Step = 100%
Source Step = 100%
Source Step = 100%
Source Step = 100%
Source Step = 100%
Source Step = 100%
Source Step = 100%
Source Step = 100%
Source Step = 100%
Source Step = 100%
Source Step = 100%
Source Step = 100%
Source Step = 100%
Source Step = 100%
Source Step = 100%
Source Step = 100%
Source Step = 100%
Source Step = 100%
Source Step = 100%
Source Step = 100%
Source Step = 100%
Source Step = 100%
Source Step = 100%
Source Step = 100%
Source Step = 100%
Source Step = 100%
Source Step = 100%
Source Step = 100%
Source Step = 100%
Source Step = 100%
Source Step = 100%
Source Step = 100%
Source Step = 100%
Source Step = 100%
Source Step = 100%
Source Step = 100%
Source Step = 100%
Source Step = 100%
Source Step = 100%
Source Step = 100%
Source Step = 100%
Source Step = 100%
Source Step = 100%
Source Step = 100%
Source Step = 100%
Source Step = 100%
Source Step = 100%
Source Step = 100%
Source Step = 100%
Source Step = 100%
Source stepping aborted.
Pseudo Transient failed in finding the operating point at 5.39464 s.
Direct Newton iteration failed to find .op point.  (Use ".option noopiter" to skip.)
Starting Gmin stepping
Gmin = 10
Gmin = 1.07374
Gmin = 0.115292
Gmin = 0.0123794
Gmin = 0.00132923
Gmin = 0.000142725
Gmin = 1.5325e-005
Gmin = 1.6455e-006
Gmin = 1.76685e-007
Gmin = 1.89714e-008
Gmin = 2.03704e-009
Gmin = 2.18725e-010
Gmin = 2.34854e-011
Gmin = 2.52173e-012
vernier = 0.5
vernier = 0.25
Gmin = 1.01662e-012
vernier = 0.125
vernier = 0.0625
vernier = 0.03125
vernier = 0.015625
vernier = 0.0078125
vernier = 0.00390625
vernier = 0.00195313
vernier = 0.000976563
Gmin = 1.0791e-012
vernier = 0.000488281
Gmin = 0
Gmin stepping succeeded in finding the operating point.


Date: Wed Feb 12 16:04:35 2020
Total elapsed time: 27.439 seconds.

tnom = 27
temp = 27
method = trap
totiter = 13308289
traniter = 0
tranpoints = 0
accept = 0
rejected = 150201
matrix size = 11
fillins = 0
solver = Normal
Matrix Compiler1: 486 bytes object code size  0.2/0.1/[0.1]
Matrix Compiler2: off  [0.1]/0.1/0.1

